
     RDKit          3D

 20 20  0  0  0  0  0  0  0  0999 V2000
   -4.3110    0.0630    0.5210 C   0  0  0  0  0  0  0  0  0  0  0  0
   -2.8940   -0.3450    0.1080 C   0  0  2  0  0  0  0  0  0  0  0  0
   -3.0720   -1.3700   -0.8250 O   0  0  0  0  0  0  0  0  0  0  0  0
   -2.2250   -0.9210    1.3090 C   0  0  0  0  0  0  0  0  0  0  0  0
   -3.1050   -1.9050    1.8240 O   0  0  0  0  0  0  0  0  0  0  0  0
   -2.1440    0.8350   -0.4410 C   0  0  0  0  0  0  0  0  0  0  0  0
   -0.7620    0.5170   -0.8650 C   0  0  2  0  0  0  0  0  0  0  0  0
    0.0820    0.0380    0.1290 O   0  0  0  0  0  0  0  0  0  0  0  0
    1.3130    0.1280   -0.5230 C   0  0  2  0  0  0  0  0  0  0  0  0
    2.4890   -0.0110    0.3710 C   0  0  0  0  0  0  0  0  0  0  0  0
    2.5490   -1.3130    1.0990 C   0  0  0  0  0  0  0  0  0  0  0  0
    2.6170   -2.4990    0.2200 C   0  0  0  0  0  0  0  0  0  0  0  0
    2.6290   -2.4710   -1.0340 O   0  0  0  0  0  0  0  0  0  0  0  0
    2.6700   -3.7420    0.8370 O   0  0  0  0  0  0  0  0  0  0  0  0
    1.2180    1.5140   -1.1080 C   0  0  2  0  0  0  0  0  0  0  0  0
    1.9200    1.6080   -2.3100 O   0  0  0  0  0  0  0  0  0  0  0  0
    1.6120    2.5780   -0.1730 C   0  0  0  0  0  0  0  0  0  0  0  0
    2.5950    3.5120   -0.5500 N   0  0  0  0  0  0  0  0  0  0  0  0
    1.0830    2.6580    0.9470 O   0  0  0  0  0  0  0  0  0  0  0  0
   -0.1420    1.6870   -1.3670 O   0  0  0  0  0  0  0  0  0  0  0  0
  2  1  1  1
  2  3  1  0
  2  4  1  0
  2  6  1  0
  4  5  1  0
  7  6  1  1
  7  8  1  0
  7 20  1  0
  8  9  1  0
  9 10  1  1
  9 15  1  0
 10 11  1  0
 11 12  1  0
 12 13  2  0
 12 14  1  0
 15 16  1  6
 15 17  1  0
 15 20  1  0
 17 18  1  0
 17 19  2  0
M  END
