
     RDKit          3D

 20 20  0  0  0  0  0  0  0  0999 V2000
    1.7020   -2.7710   -0.4180 N   0  0  0  0  0  0  0  0  0  0  0  0
    2.0880   -1.3690   -0.1640 C   0  0  2  0  0  0  0  0  0  0  0  0
    3.2910   -1.3260    0.5120 O   0  0  0  0  0  0  0  0  0  0  0  0
    4.2950   -0.6600   -0.1350 C   0  0  0  0  0  0  0  0  0  0  0  0
    4.0160    0.7870   -0.4240 C   0  0  0  0  0  0  0  0  0  0  0  0
    5.1150    1.3450   -1.0830 O   0  0  0  0  0  0  0  0  0  0  0  0
    1.0370   -0.8510    0.6090 O   0  0  0  0  0  0  0  0  0  0  0  0
    0.3970    0.1720   -0.0450 C   0  0  2  0  0  0  0  0  0  0  0  0
    0.0860    1.4120    0.7550 C   0  0  0  0  0  0  0  0  0  0  0  0
   -1.2510    1.4470    0.0830 C   0  0  2  0  0  0  0  0  0  0  0  0
   -2.3340    1.8620    0.8890 O   0  0  0  0  0  0  0  0  0  0  0  0
   -3.1780    2.8410    0.3810 C   0  0  0  0  0  0  0  0  0  0  0  0
   -2.9510    3.3190   -0.7690 O   0  0  0  0  0  0  0  0  0  0  0  0
   -4.2730    3.3420    1.0540 O   0  0  0  0  0  0  0  0  0  0  0  0
   -1.1450   -0.0530   -0.0910 C   0  0  1  0  0  0  0  0  0  0  0  0
   -1.6030   -0.4640   -1.4410 C   0  0  0  0  0  0  0  0  0  0  0  0
   -2.9620   -0.6470   -1.5560 O   0  0  0  0  0  0  0  0  0  0  0  0
   -1.4920   -0.8530    1.1060 C   0  0  0  0  0  0  0  0  0  0  0  0
   -2.8890   -1.2440    1.3550 C   0  0  0  0  0  0  0  0  0  0  0  0
   -3.4370   -2.0620    0.3990 O   0  0  0  0  0  0  0  0  0  0  0  0
  2  1  1  1
  2  3  1  0
  2  7  1  0
  3  4  1  0
  4  5  1  0
  5  6  1  0
  8  7  1  1
  8  9  1  0
  8 15  1  0
  9 10  1  0
 10 11  1  1
 10 15  1  0
 11 12  1  0
 12 13  2  0
 12 14  1  0
 15 16  1  6
 15 18  1  0
 16 17  1  0
 18 19  1  0
 19 20  1  0
M  END
