
     RDKit          3D

 20 20  0  0  0  0  0  0  0  0999 V2000
    1.8690    0.4210    1.4820 O   0  0  0  0  0  0  0  0  0  0  0  0
    1.5670   -0.0230    0.3430 C   0  0  0  0  0  0  0  0  0  0  0  0
    0.2120    0.0560   -0.0520 N   0  0  0  0  0  0  0  0  0  0  0  0
   -0.8080    0.6250    0.8070 C   0  0  1  0  0  0  0  0  0  0  0  0
   -0.9800   -0.0970    1.9640 O   0  0  0  0  0  0  0  0  0  0  0  0
   -0.4540    2.0750    1.1100 C   0  0  0  0  0  0  0  0  0  0  0  0
    0.0080    2.6850   -0.1930 C   0  0  0  0  0  0  0  0  0  0  0  0
   -0.8550    2.2850   -1.2070 O   0  0  0  0  0  0  0  0  0  0  0  0
   -2.1430    2.0180   -0.7460 C   0  0  0  0  0  0  0  0  0  0  0  0
   -2.1260    0.7040    0.0140 C   0  0  2  0  0  0  0  0  0  0  0  0
   -3.2120    0.5040    0.7930 O   0  0  0  0  0  0  0  0  0  0  0  0
   -4.0240   -0.5540    0.5920 C   0  0  0  0  0  0  0  0  0  0  0  0
   -3.3840   -1.9030    0.7870 C   0  0  0  0  0  0  0  0  0  0  0  0
   -2.3250   -2.1920   -0.0190 O   0  0  0  0  0  0  0  0  0  0  0  0
    2.5990   -0.6170   -0.5690 C   0  0  1  0  0  0  0  0  0  0  0  0
    2.7470    0.2810   -1.7960 C   0  0  0  0  0  0  0  0  0  0  0  0
    1.5790    0.3190   -2.5520 O   0  0  0  0  0  0  0  0  0  0  0  0
    3.8370   -0.5610    0.0890 O   0  0  0  0  0  0  0  0  0  0  0  0
    4.3970   -1.8360    0.1430 C   0  0  0  0  0  0  0  0  0  0  0  0
    4.6080   -2.3760   -1.1230 O   0  0  0  0  0  0  0  0  0  0  0  0
  1  2  2  0
  2  3  1  0
  2 15  1  0
  3  4  1  0
  4  5  1  1
  4  6  1  0
  4 10  1  0
  6  7  1  0
  7  8  1  0
  8  9  1  0
  9 10  1  0
 10 11  1  1
 11 12  1  0
 12 13  1  0
 13 14  1  0
 15 16  1  6
 15 18  1  0
 16 17  1  0
 18 19  1  0
 19 20  1  0
M  END
