
     RDKit          3D

 42 44  0  0  0  0  0  0  0  0999 V2000
   -5.5610   -4.8990    3.3860 N   0  0  0  0  0  0  0  0  0  0  0  0
   -4.5330   -4.4680    2.4620 C   0  0  0  0  0  0  0  0  0  0  0  0
   -4.9990   -3.2100    1.8040 C   0  0  2  0  0  0  0  0  0  0  0  0
   -6.1690   -3.3340    1.0960 O   0  0  0  0  0  0  0  0  0  0  0  0
   -3.9100   -2.7920    0.7880 C   0  0  0  0  0  0  0  0  0  0  0  0
   -4.3230   -1.6150    0.2640 O   0  0  0  0  0  0  0  0  0  0  0  0
   -3.5600   -1.0220   -0.7190 C   0  0  0  0  0  0  0  0  0  0  0  0
   -2.2110   -0.7260   -0.2010 C   0  0  2  0  0  0  0  0  0  0  0  0
   -2.3360    0.0760    0.9150 O   0  0  0  0  0  0  0  0  0  0  0  0
   -1.2230   -0.1950   -1.2020 C   0  0  2  0  0  0  0  0  0  0  0  0
   -1.1250   -1.3380   -2.2600 C   0  0  0  0  0  0  0  0  0  0  0  0
   -0.9030   -2.5510   -1.6830 O   0  0  0  0  0  0  0  0  0  0  0  0
    0.0050   -0.1270   -0.5140 O   0  0  0  0  0  0  0  0  0  0  0  0
    1.2240    0.2000   -1.0060 C   0  0  0  0  0  0  0  0  0  0  0  0
    1.3150    0.4630   -2.2260 O   0  0  0  0  0  0  0  0  0  0  0  0
    2.3470    0.2350   -0.1390 N   0  0  0  0  0  0  0  0  0  0  0  0
    3.6590    0.5910   -0.6850 C   0  0  0  0  0  0  0  0  0  0  0  0
    4.6070   -0.5230   -0.2940 C   0  0  1  0  0  0  0  0  0  0  0  0
    4.2490   -1.7070   -1.2040 C   0  0  0  0  0  0  0  0  0  0  0  0
    4.2250   -1.1620   -2.5070 O   0  0  0  0  0  0  0  0  0  0  0  0
    5.4640   -0.6590   -2.8450 C   0  0  0  0  0  0  0  0  0  0  0  0
    5.8450    0.4270   -2.0290 O   0  0  0  0  0  0  0  0  0  0  0  0
    6.0000   -0.0930   -0.7460 C   0  0  1  0  0  0  0  0  0  0  0  0
    6.6440    0.8430    0.1760 C   0  0  0  0  0  0  0  0  0  0  0  0
    6.8710    0.4530    1.5200 N   0  0  0  0  0  0  0  0  0  0  0  0
    7.0040    1.9870   -0.1890 O   0  0  0  0  0  0  0  0  0  0  0  0
    4.5470   -0.8420    1.0350 O   0  0  0  0  0  0  0  0  0  0  0  0
    3.7220   -0.0060    1.7830 C   0  0  0  0  0  0  0  0  0  0  0  0
    2.2820   -0.0580    1.2530 C   0  0  2  0  0  0  0  0  0  0  0  0
    1.6830   -1.3960    1.5950 C   0  0  0  0  0  0  0  0  0  0  0  0
    1.7130   -1.4870    3.0070 O   0  0  0  0  0  0  0  0  0  0  0  0
   -1.5310    1.0640   -1.8920 C   0  0  1  0  0  0  0  0  0  0  0  0
   -2.7870    1.0450   -2.5420 O   0  0  0  0  0  0  0  0  0  0  0  0
   -1.1800    2.3770   -1.3530 C   0  0  0  0  0  0  0  0  0  0  0  0
   -1.6570    2.9080   -0.0880 C   0  0  2  0  0  0  0  0  0  0  0  0
   -3.0570    3.1050    0.1850 C   0  0  0  0  0  0  0  0  0  0  0  0
   -4.0520    2.5110   -0.2560 O   0  0  0  0  0  0  0  0  0  0  0  0
   -3.1610    4.1500    1.0950 O   0  0  0  0  0  0  0  0  0  0  0  0
   -1.8490    4.6220    1.4510 C   0  0  0  0  0  0  0  0  0  0  0  0
   -1.1460    4.3710    0.1050 C   0  0  2  0  0  0  0  0  0  0  0  0
   -1.7860    5.3170   -0.8560 C   0  0  0  0  0  0  0  0  0  0  0  0
   -3.1880    5.3450   -0.7110 O   0  0  0  0  0  0  0  0  0  0  0  0
  1  2  1  0
  2  3  1  0
  3  4  1  6
  3  5  1  0
  5  6  1  0
  6  7  1  0
  7  8  1  0
  8  9  1  1
  8 10  1  0
 10 11  1  6
 10 13  1  0
 10 32  1  0
 11 12  1  0
 13 14  1  0
 14 15  2  0
 14 16  1  0
 16 17  1  0
 16 29  1  0
 18 17  1  1
 18 19  1  0
 18 23  1  0
 18 27  1  0
 19 20  1  0
 20 21  1  0
 21 22  1  0
 22 23  1  0
 23 24  1  1
 24 25  1  0
 24 26  2  0
 27 28  1  0
 28 29  1  0
 29 30  1  6
 30 31  1  0
 32 33  1  1
 32 34  1  0
 35 34  1  6
 35 36  1  0
 35 40  1  0
 36 37  2  0
 36 38  1  0
 38 39  1  0
 39 40  1  0
 40 41  1  6
 41 42  1  0
M  END
