
     RDKit          3D

 42 45  0  0  0  0  0  0  0  0999 V2000
    6.5840    1.4160   -2.1970 N   0  0  0  0  0  0  0  0  0  0  0  0
    5.9430    0.7810   -1.2630 O   0  0  0  0  0  0  0  0  0  0  0  0
    5.6580    1.4260   -0.1140 C   0  0  1  0  0  0  0  0  0  0  0  0
    6.7490    1.9520    0.7360 C   0  0  1  0  0  0  0  0  0  0  0  0
    7.8330    1.0770    0.7600 O   0  0  0  0  0  0  0  0  0  0  0  0
    7.1200    3.3640    0.5760 C   0  0  0  0  0  0  0  0  0  0  0  0
    7.6210    3.8600   -0.7220 C   0  0  0  0  0  0  0  0  0  0  0  0
    8.7970    3.2390   -1.1590 O   0  0  0  0  0  0  0  0  0  0  0  0
    4.5400    2.3780   -0.2200 N   0  0  0  0  0  0  0  0  0  0  0  0
    3.3770    1.5280   -0.3020 C   0  0  0  0  0  0  0  0  0  0  0  0
    2.1340    1.8880   -0.9090 N   0  0  0  0  0  0  0  0  0  0  0  0
    3.6180    0.3780    0.2580 C   0  0  0  0  0  0  0  0  0  0  0  0
    2.7700   -0.7940    0.4250 C   0  0  0  0  0  0  0  0  0  0  0  0
    3.2070   -1.8350    1.0100 O   0  0  0  0  0  0  0  0  0  0  0  0
    1.4510   -0.8590   -0.0300 O   0  0  0  0  0  0  0  0  0  0  0  0
    0.7550   -2.0630    0.2110 C   0  0  0  0  0  0  0  0  0  0  0  0
   -0.6550   -2.0870   -0.2920 C   0  0  1  0  0  0  0  0  0  0  0  0
   -1.2910   -3.4260    0.0210 C   0  0  2  0  0  0  0  0  0  0  0  0
   -0.4740   -4.3770   -0.6370 O   0  0  0  0  0  0  0  0  0  0  0  0
   -2.6530   -3.5590   -0.6040 C   0  0  1  0  0  0  0  0  0  0  0  0
   -2.7480   -4.6710   -1.4510 O   0  0  0  0  0  0  0  0  0  0  0  0
   -3.5930   -3.8030    0.5620 C   0  0  0  0  0  0  0  0  0  0  0  0
   -2.7190   -4.4140    1.6260 C   0  0  0  0  0  0  0  0  0  0  0  0
   -1.3550   -3.7990    1.4430 C   0  0  1  0  0  0  0  0  0  0  0  0
   -0.3570   -4.8890    1.8270 C   0  0  0  0  0  0  0  0  0  0  0  0
   -0.4980   -5.1680    3.1910 O   0  0  0  0  0  0  0  0  0  0  0  0
   -1.4380   -0.9300    0.2290 C   0  0  0  0  0  0  0  0  0  0  0  0
   -1.2880    0.1070   -0.8450 C   0  0  2  0  0  0  0  0  0  0  0  0
   -2.2050    1.2610   -0.7900 C   0  0  0  0  0  0  0  0  0  0  0  0
   -3.6340    1.0030   -0.8740 C   0  0  0  0  0  0  0  0  0  0  0  0
   -4.0790   -0.1590   -0.9870 O   0  0  0  0  0  0  0  0  0  0  0  0
   -4.5770    2.0240   -0.8330 O   0  0  0  0  0  0  0  0  0  0  0  0
   -5.9540    1.8210   -0.9070 C   0  0  0  0  0  0  0  0  0  0  0  0
   -6.6000    3.2140   -0.8420 C   0  0  1  0  0  0  0  0  0  0  0  0
   -8.0840    3.1280   -0.8290 C   0  0  0  0  0  0  0  0  0  0  0  0
   -8.4560    3.6260    0.3950 O   0  0  0  0  0  0  0  0  0  0  0  0
   -7.3930    4.3810    0.8820 C   0  0  0  0  0  0  0  0  0  0  0  0
   -6.2440    3.8160    0.3350 O   0  0  0  0  0  0  0  0  0  0  0  0
   -1.3860   -0.6980   -2.0100 O   0  0  0  0  0  0  0  0  0  0  0  0
   -0.6420   -1.8670   -1.7540 C   0  0  0  0  0  0  0  0  0  0  0  0
   -0.0680   -2.6000   -2.5840 O   0  0  0  0  0  0  0  0  0  0  0  0
    4.9230    0.4340    0.7140 O   0  0  0  0  0  0  0  0  0  0  0  0
  1  2  1  0
  3  2  1  6
  3  4  1  0
  3  9  1  0
  3 42  1  0
  4  5  1  6
  4  6  1  0
  6  7  1  0
  7  8  1  0
  9 10  1  0
 10 11  1  0
 10 12  2  0
 12 13  1  0
 12 42  1  0
 13 14  2  0
 13 15  1  0
 15 16  1  0
 17 16  1  1
 17 18  1  0
 17 27  1  0
 17 40  1  0
 18 19  1  6
 18 20  1  0
 18 24  1  0
 20 21  1  6
 20 22  1  0
 22 23  1  0
 23 24  1  0
 24 25  1  6
 25 26  1  0
 27 28  1  0
 28 29  1  6
 28 39  1  0
 29 30  1  0
 30 31  2  0
 30 32  1  0
 32 33  1  0
 34 33  1  1
 34 35  1  0
 34 38  1  0
 35 36  1  0
 36 37  1  0
 37 38  1  0
 39 40  1  0
 40 41  2  0
M  END
