
     RDKit          3D

 43 44  0  0  0  0  0  0  0  0999 V2000
   -3.6230   -3.4420    1.4820 C   0  0  0  0  0  0  0  0  0  0  0  0
   -3.9440   -1.9740    1.2940 C   0  0  2  0  0  0  0  0  0  0  0  0
   -5.0990   -1.7760    0.4610 N   0  0  0  0  0  0  0  0  0  0  0  0
   -6.2720   -1.1920    1.0630 C   0  0  0  0  0  0  0  0  0  0  0  0
   -6.2760   -0.8690    2.2810 O   0  0  0  0  0  0  0  0  0  0  0  0
   -7.4810   -0.9620    0.2740 C   0  0  1  0  0  0  0  0  0  0  0  0
   -8.5060   -0.4360    1.0840 O   0  0  0  0  0  0  0  0  0  0  0  0
   -9.4170    0.1640    0.2410 C   0  0  0  0  0  0  0  0  0  0  0  0
  -10.6790    0.4020    0.5440 C   0  0  0  0  0  0  0  0  0  0  0  0
  -11.5590    1.0650   -0.4770 C   0  0  0  0  0  0  0  0  0  0  0  0
  -12.0200    2.2570    0.0780 O   0  0  0  0  0  0  0  0  0  0  0  0
   -8.7450    0.4960   -1.0630 C   0  0  2  0  0  0  0  0  0  0  0  0
   -9.2930   -0.3020   -2.0640 O   0  0  0  0  0  0  0  0  0  0  0  0
   -7.2990    0.1180   -0.7770 C   0  0  2  0  0  0  0  0  0  0  0  0
   -6.6510   -0.3890   -1.8800 O   0  0  0  0  0  0  0  0  0  0  0  0
   -2.7880   -1.2380    0.6350 C   0  0  1  0  0  0  0  0  0  0  0  0
   -3.1370    0.0980    0.5550 O   0  0  0  0  0  0  0  0  0  0  0  0
   -1.5260   -1.4970    1.3770 C   0  0  0  0  0  0  0  0  0  0  0  0
   -0.3320   -0.9110    0.8520 N   0  0  0  0  0  0  0  0  0  0  0  0
   -0.0280    0.4490    0.6810 C   0  0  0  0  0  0  0  0  0  0  0  0
   -0.9360    1.2690    1.0480 O   0  0  0  0  0  0  0  0  0  0  0  0
    1.2010    1.0170    0.1330 C   0  0  2  0  0  0  0  0  0  0  0  0
    1.0380    2.4380    0.1670 O   0  0  0  0  0  0  0  0  0  0  0  0
    1.4270    0.7240   -1.3400 C   0  0  0  0  0  0  0  0  0  0  0  0
    2.7340    1.0300   -1.6210 O   0  0  0  0  0  0  0  0  0  0  0  0
    3.2650    2.1070   -0.9620 C   0  0  0  0  0  0  0  0  0  0  0  0
    3.3690    1.9430    0.5390 C   0  0  0  0  0  0  0  0  0  0  0  0
    2.4610    0.7410    0.8610 C   0  0  2  0  0  0  0  0  0  0  0  0
    3.2090   -0.4590    0.4660 C   0  0  0  0  0  0  0  0  0  0  0  0
    2.9310   -1.2670   -0.4360 O   0  0  0  0  0  0  0  0  0  0  0  0
    4.4110   -0.7500    1.2020 N   0  0  0  0  0  0  0  0  0  0  0  0
    5.2220   -1.8980    0.9120 C   0  0  0  0  0  0  0  0  0  0  0  0
    5.7710   -1.8350   -0.4780 C   0  0  2  0  0  0  0  0  0  0  0  0
    6.5330   -3.0020   -0.7470 O   0  0  0  0  0  0  0  0  0  0  0  0
    6.6830   -0.6760   -0.6780 C   0  0  0  0  0  0  0  0  0  0  0  0
    6.3380    0.5220   -0.5120 O   0  0  0  0  0  0  0  0  0  0  0  0
    7.9960   -0.9060   -1.0690 O   0  0  0  0  0  0  0  0  0  0  0  0
    8.9530    0.1090   -1.2850 C   0  0  0  0  0  0  0  0  0  0  0  0
    9.2200    0.9300   -0.0500 C   0  0  0  0  0  0  0  0  0  0  0  0
   10.1760    1.8980   -0.3740 O   0  0  0  0  0  0  0  0  0  0  0  0
   10.4720    2.6970    0.7440 C   0  0  1  0  0  0  0  0  0  0  0  0
   11.8030    2.5620    1.1430 O   0  0  0  0  0  0  0  0  0  0  0  0
   10.1820    4.0200    0.4810 O   0  0  0  0  0  0  0  0  0  0  0  0
  2  1  1  6
  2  3  1  0
  2 16  1  0
  3  4  1  0
  4  5  2  0
  6  4  1  1
  6  7  1  0
  6 14  1  0
  7  8  1  0
  8  9  2  3
  8 12  1  0
  9 10  1  0
 10 11  1  0
 12 13  1  6
 12 14  1  0
 14 15  1  6
 16 17  1  1
 16 18  1  0
 18 19  1  0
 19 20  1  0
 20 21  2  0
 20 22  1  0
 22 23  1  6
 22 24  1  0
 22 28  1  0
 24 25  1  0
 25 26  1  0
 26 27  1  0
 27 28  1  0
 28 29  1  6
 29 30  2  0
 29 31  1  0
 31 32  1  0
 32 33  1  0
 33 34  1  1
 33 35  1  0
 35 36  2  0
 35 37  1  0
 37 38  1  0
 38 39  1  0
 39 40  1  0
 40 41  1  0
 41 42  1  6
 41 43  1  0
M  END
