
     RDKit          3D

 43 46  0  0  0  0  0  0  0  0999 V2000
   -4.8350    4.0000   -2.2490 C   0  0  0  0  0  0  0  0  0  0  0  0
   -5.2030    2.6220   -1.8170 C   0  0  0  0  0  0  0  0  0  0  0  0
   -5.8740    1.8820   -2.5670 O   0  0  0  0  0  0  0  0  0  0  0  0
   -4.7970    2.1070   -0.5300 N   0  0  0  0  0  0  0  0  0  0  0  0
   -5.1460    0.7770   -0.1010 C   0  0  1  0  0  0  0  0  0  0  0  0
   -4.0180   -0.0820    0.3480 C   0  0  2  0  0  0  0  0  0  0  0  0
   -2.9950   -0.1490   -0.5870 O   0  0  0  0  0  0  0  0  0  0  0  0
   -1.7420    0.0220   -0.0540 C   0  0  1  0  0  0  0  0  0  0  0  0
   -0.9930   -1.3710   -0.1440 C   0  0  1  0  0  0  0  0  0  0  0  0
   -0.9460   -1.6300   -1.4950 O   0  0  0  0  0  0  0  0  0  0  0  0
    0.3500   -1.0990    0.4170 C   0  0  1  0  0  0  0  0  0  0  0  0
    1.1010   -2.2300    0.8320 N   0  0  0  0  0  0  0  0  0  0  0  0
    1.5470   -2.4510    2.1650 C   0  0  0  0  0  0  0  0  0  0  0  0
    2.3310   -3.6360    2.5790 C   0  0  0  0  0  0  0  0  0  0  0  0
    1.2350   -1.5670    3.0000 O   0  0  0  0  0  0  0  0  0  0  0  0
    1.0640   -0.1650   -0.5310 C   0  0  2  0  0  0  0  0  0  0  0  0
    2.3950   -0.0450   -0.2360 O   0  0  0  0  0  0  0  0  0  0  0  0
    3.2040   -0.3590   -1.3430 C   0  0  2  0  0  0  0  0  0  0  0  0
    4.1410   -1.4550   -0.9910 C   0  0  1  0  0  0  0  0  0  0  0  0
    4.1280   -2.5350   -2.0640 C   0  0  0  0  0  0  0  0  0  0  0  0
    2.8400   -3.0310   -2.1530 O   0  0  0  0  0  0  0  0  0  0  0  0
    5.4930   -0.8300   -0.8880 C   0  0  2  0  0  0  0  0  0  0  0  0
    5.7300   -0.1630    0.3400 O   0  0  0  0  0  0  0  0  0  0  0  0
    6.5130    0.9820    0.0710 C   0  0  0  0  0  0  0  0  0  0  0  0
    7.3200    1.6520    0.9980 N   0  0  0  0  0  0  0  0  0  0  0  0
    7.1230    3.0540    1.3140 C   0  0  0  0  0  0  0  0  0  0  0  0
    8.4040    0.9350    1.6840 C   0  0  0  0  0  0  0  0  0  0  0  0
    6.3580    1.3090   -1.1850 N   0  0  0  0  0  0  0  0  0  0  0  0
    5.4380    0.3700   -1.8290 C   0  0  2  0  0  0  0  0  0  0  0  0
    4.0200    0.8290   -1.7140 C   0  0  1  0  0  0  0  0  0  0  0  0
    3.5700    1.4130   -2.9110 O   0  0  0  0  0  0  0  0  0  0  0  0
    0.3930    1.0780   -0.3650 O   0  0  0  0  0  0  0  0  0  0  0  0
   -0.9020    0.9160   -0.8880 C   0  0  2  0  0  0  0  0  0  0  0  0
   -1.4730    2.2480   -1.2410 C   0  0  0  0  0  0  0  0  0  0  0  0
   -1.5690    3.0920   -0.1540 O   0  0  0  0  0  0  0  0  0  0  0  0
   -4.4860   -1.4280    0.3940 O   0  0  0  0  0  0  0  0  0  0  0  0
   -5.6170   -1.6000    1.1270 C   0  0  2  0  0  0  0  0  0  0  0  0
   -6.7190   -2.2830    0.3050 C   0  0  0  0  0  0  0  0  0  0  0  0
   -7.8600   -2.4430    1.0880 O   0  0  0  0  0  0  0  0  0  0  0  0
   -6.1290   -0.4100    1.8530 C   0  0  1  0  0  0  0  0  0  0  0  0
   -5.5240   -0.3140    3.1060 O   0  0  0  0  0  0  0  0  0  0  0  0
   -6.1160    0.8700    1.1010 C   0  0  1  0  0  0  0  0  0  0  0  0
   -5.6440    1.8710    1.9760 O   0  0  0  0  0  0  0  0  0  0  0  0
  1  2  1  0
  2  3  2  0
  2  4  1  0
  5  4  1  1
  5  6  1  0
  5 42  1  0
  6  7  1  6
  6 36  1  0
  8  7  1  6
  8  9  1  0
  8 33  1  0
  9 10  1  6
  9 11  1  0
 11 12  1  6
 11 16  1  0
 12 13  1  0
 13 14  1  0
 13 15  2  0
 16 17  1  1
 16 32  1  0
 18 17  1  1
 18 19  1  0
 18 30  1  0
 19 20  1  6
 19 22  1  0
 20 21  1  0
 22 23  1  1
 22 29  1  0
 23 24  1  0
 24 25  1  0
 24 28  2  0
 25 26  1  0
 25 27  1  0
 29 28  1  1
 29 30  1  0
 30 31  1  6
 32 33  1  0
 33 34  1  1
 34 35  1  0
 36 37  1  0
 37 38  1  6
 37 40  1  0
 38 39  1  0
 40 41  1  1
 40 42  1  0
 42 43  1  1
M  END
