
     RDKit          3D

 42 43  0  0  0  0  0  0  0  0999 V2000
   -6.7100    4.1430   -0.9470 C   0  0  0  0  0  0  0  0  0  0  0  0
   -5.6260    3.8560   -1.9570 C   0  0  0  0  0  0  0  0  0  0  0  0
   -4.6200    3.0450   -1.3670 O   0  0  0  0  0  0  0  0  0  0  0  0
   -4.9250    1.8060   -0.8690 C   0  0  0  0  0  0  0  0  0  0  0  0
   -6.1220    1.4050   -0.9480 O   0  0  0  0  0  0  0  0  0  0  0  0
   -3.9290    0.9570   -0.2640 N   0  0  0  0  0  0  0  0  0  0  0  0
   -4.3080   -0.3300    0.2390 C   0  0  0  0  0  0  0  0  0  0  0  0
   -5.5230   -0.6370    0.1140 O   0  0  0  0  0  0  0  0  0  0  0  0
   -3.2980   -1.2550    0.8790 C   0  0  1  0  0  0  0  0  0  0  0  0
   -2.7270   -0.5540    2.0250 C   0  0  0  0  0  0  0  0  0  0  0  0
   -3.7370   -0.2180    2.9610 O   0  0  0  0  0  0  0  0  0  0  0  0
   -4.0680   -2.5130    1.2160 C   0  0  0  0  0  0  0  0  0  0  0  0
   -4.2180   -3.2040    0.0390 O   0  0  0  0  0  0  0  0  0  0  0  0
   -3.5020   -2.5770   -0.9560 C   0  0  0  0  0  0  0  0  0  0  0  0
   -2.4330   -1.7400   -0.2040 C   0  0  1  0  0  0  0  0  0  0  0  0
   -2.0550   -0.6990   -1.0620 O   0  0  0  0  0  0  0  0  0  0  0  0
   -1.3320   -2.6750    0.0620 C   0  0  1  0  0  0  0  0  0  0  0  0
   -0.7040   -2.9510   -1.3250 C   0  0  0  0  0  0  0  0  0  0  0  0
   -0.2610   -2.3220    0.9720 C   0  0  0  0  0  0  0  0  0  0  0  0
   -0.0690   -3.0430    2.0080 O   0  0  0  0  0  0  0  0  0  0  0  0
    0.6290   -1.2620    0.8630 O   0  0  0  0  0  0  0  0  0  0  0  0
    1.6590   -1.0140    1.7960 C   0  0  1  0  0  0  0  0  0  0  0  0
    2.9550   -1.3690    1.0150 C   0  0  1  0  0  0  0  0  0  0  0  0
    3.0340   -2.8580    0.8010 C   0  0  0  0  0  0  0  0  0  0  0  0
    3.0450   -3.4400    2.0900 O   0  0  0  0  0  0  0  0  0  0  0  0
    2.8440   -0.5910   -0.2610 C   0  0  0  0  0  0  0  0  0  0  0  0
    2.6690    0.8560    0.0340 C   0  0  1  0  0  0  0  0  0  0  0  0
    3.9280    1.5850   -0.3900 C   0  0  0  0  0  0  0  0  0  0  0  0
    5.0090    1.1640    0.4090 O   0  0  0  0  0  0  0  0  0  0  0  0
    6.1530    1.8240    0.0230 C   0  0  1  0  0  0  0  0  0  0  0  0
    6.7070    2.5420    1.0810 O   0  0  0  0  0  0  0  0  0  0  0  0
    7.2350    0.8550   -0.4520 C   0  0  0  0  0  0  0  0  0  0  0  0
    7.5930   -0.0400    0.5530 O   0  0  0  0  0  0  0  0  0  0  0  0
    1.5190    1.4570   -0.7870 C   0  0  0  0  0  0  0  0  0  0  0  0
    1.7110    1.2990   -2.2270 C   0  0  0  0  0  0  0  0  0  0  0  0
    0.8250    1.9110   -3.1530 N   0  0  0  0  0  0  0  0  0  0  0  0
    2.6470    0.6300   -2.6910 O   0  0  0  0  0  0  0  0  0  0  0  0
    2.5120    1.1990    1.3640 O   0  0  0  0  0  0  0  0  0  0  0  0
    1.8440    0.4060    2.2150 C   0  0  1  0  0  0  0  0  0  0  0  0
    0.6120    0.9850    2.8050 C   0  0  0  0  0  0  0  0  0  0  0  0
   -0.1580    0.3230    3.7900 N   0  0  0  0  0  0  0  0  0  0  0  0
    0.2270    2.1170    2.4220 O   0  0  0  0  0  0  0  0  0  0  0  0
  1  2  1  0
  2  3  1  0
  3  4  1  0
  4  5  2  0
  4  6  1  0
  6  7  1  0
  7  8  2  0
  7  9  1  0
  9 10  1  1
  9 12  1  0
  9 15  1  0
 10 11  1  0
 12 13  1  0
 13 14  1  0
 14 15  1  0
 15 16  1  6
 15 17  1  0
 17 18  1  6
 17 19  1  0
 19 20  2  0
 19 21  1  0
 22 21  1  6
 22 23  1  0
 22 39  1  0
 23 24  1  6
 23 26  1  0
 24 25  1  0
 26 27  1  0
 27 28  1  6
 27 34  1  0
 27 38  1  0
 28 29  1  0
 29 30  1  0
 30 31  1  1
 30 32  1  0
 32 33  1  0
 34 35  1  0
 35 36  1  0
 35 37  2  0
 38 39  1  0
 39 40  1  6
 40 41  1  0
 40 42  2  0
M  END
