
     RDKit          3D

 43 47  0  0  0  0  0  0  0  0999 V2000
   -5.7480   -3.6110    2.1850 C   0  0  0  0  0  0  0  0  0  0  0  0
   -5.2260   -2.2940    1.8730 C   0  0  0  0  0  0  0  0  0  0  0  0
   -4.6140   -1.7440    0.8730 C   0  0  0  0  0  0  0  0  0  0  0  0
   -4.2810   -0.3670    1.0180 C   0  0  0  0  0  0  0  0  0  0  0  0
   -3.6430    0.2730    0.0030 C   0  0  0  0  0  0  0  0  0  0  0  0
   -3.2900   -0.3390   -1.1770 C   0  0  0  0  0  0  0  0  0  0  0  0
   -3.6130   -1.6590   -1.3050 C   0  0  0  0  0  0  0  0  0  0  0  0
   -4.2800   -2.3860   -0.2860 C   0  0  0  0  0  0  0  0  0  0  0  0
   -4.5310   -3.6570   -0.5400 C   0  0  0  0  0  0  0  0  0  0  0  0
   -4.1460   -4.1980   -1.7490 F   0  0  0  0  0  0  0  0  0  0  0  0
   -2.5610    0.3400   -2.2910 C   0  0  1  0  0  0  0  0  0  0  0  0
   -3.4200    0.5520   -3.5140 C   0  0  0  0  0  0  0  0  0  0  0  0
   -4.5820    1.3520   -3.3000 N   0  0  0  0  0  0  0  0  0  0  0  0
   -1.8170    1.5580   -1.8640 C   0  0  0  0  0  0  0  0  0  0  0  0
   -1.9200    1.8060   -0.4300 N   0  0  0  0  0  0  0  0  0  0  0  0
   -0.8410    2.0900    0.4060 C   0  0  0  0  0  0  0  0  0  0  0  0
   -1.0770    2.3420    1.6300 O   0  0  0  0  0  0  0  0  0  0  0  0
    0.6080    2.1350    0.0150 C   0  0  2  0  0  0  0  0  0  0  0  0
    1.1050    0.8180   -0.4390 C   0  0  0  0  0  0  0  0  0  0  0  0
    2.4650    0.4450   -0.0390 N   0  0  0  0  0  0  0  0  0  0  0  0
    3.1670   -0.3590   -0.9390 C   0  0  0  0  0  0  0  0  0  0  0  0
    2.4980   -0.6740   -2.0250 O   0  0  0  0  0  0  0  0  0  0  0  0
    4.4910   -0.9040   -0.8890 C   0  0  0  0  0  0  0  0  0  0  0  0
    4.9220   -1.7150   -1.9630 C   0  0  0  0  0  0  0  0  0  0  0  0
    6.1750   -2.2600   -1.9820 C   0  0  0  0  0  0  0  0  0  0  0  0
    7.0780   -2.0460   -0.9550 C   0  0  0  0  0  0  0  0  0  0  0  0
    6.6790   -1.2610    0.0980 C   0  0  0  0  0  0  0  0  0  0  0  0
    5.4240   -0.7110    0.1240 C   0  0  0  0  0  0  0  0  0  0  0  0
    7.6340   -1.0120    1.1970 C   0  0  0  0  0  0  0  0  0  0  0  0
    8.9590   -0.6640    0.5050 C   0  0  1  0  0  0  0  0  0  0  0  0
    9.9210   -0.1890    1.4650 N   0  0  0  0  0  0  0  0  0  0  0  0
    9.4580   -1.8760   -0.2010 C   0  0  0  0  0  0  0  0  0  0  0  0
    8.4330   -2.6360   -0.9670 C   0  0  0  0  0  0  0  0  0  0  0  0
    2.9560    0.9000    1.2060 C   0  0  0  0  0  0  0  0  0  0  0  0
    1.8090    1.6640    1.9210 C   0  0  0  0  0  0  0  0  0  0  0  0
    1.3540    2.6640    1.0820 O   0  0  0  0  0  0  0  0  0  0  0  0
   -3.2640    1.7140    0.0790 C   0  0  2  0  0  0  0  0  0  0  0  0
   -3.6160    2.4300    1.3040 C   0  0  0  0  0  0  0  0  0  0  0  0
   -5.1250    2.4260    1.4160 C   0  0  0  0  0  0  0  0  0  0  0  0
   -5.8710    1.9550    0.5200 O   0  0  0  0  0  0  0  0  0  0  0  0
   -5.7600    2.9700    2.5760 N   0  0  0  0  0  0  0  0  0  0  0  0
   -7.2010    2.9620    2.6750 C   0  0  0  0  0  0  0  0  0  0  0  0
   -7.8110    1.6040    2.6280 C   0  0  0  0  0  0  0  0  0  0  0  0
  1  2  1  0
  2  3  2  3
  3  4  1  0
  3  8  1  0
  4  5  2  0
  5  6  1  0
  5 37  1  0
  6  7  2  0
  6 11  1  0
  7  8  1  0
  8  9  2  3
  9 10  1  0
 11 12  1  6
 11 14  1  0
 12 13  1  0
 14 15  1  0
 15 16  1  0
 15 37  1  0
 16 17  2  0
 18 16  1  1
 18 19  1  0
 18 36  1  0
 19 20  1  0
 20 21  1  0
 20 34  1  0
 21 22  2  0
 21 23  1  0
 23 24  2  0
 23 28  1  0
 24 25  1  0
 25 26  2  0
 26 27  1  0
 26 33  1  0
 27 28  2  0
 27 29  1  0
 29 30  1  0
 30 31  1  1
 30 32  1  0
 32 33  1  0
 34 35  1  0
 35 36  1  0
 37 38  1  1
 38 39  1  0
 39 40  2  0
 39 41  1  0
 41 42  1  0
 42 43  1  0
M  CHG  2  13   1  31   1
M  END
