
     RDKit          3D

 42 44  0  0  0  0  0  0  0  0999 V2000
   -7.1000    0.6800    1.3670 C   0  0  0  0  0  0  0  0  0  0  0  0
   -5.7460    0.6100    1.7150 O   0  0  0  0  0  0  0  0  0  0  0  0
   -4.7080    0.5480    0.8460 C   0  0  0  0  0  0  0  0  0  0  0  0
   -5.1580    0.5550   -0.3740 O   0  0  0  0  0  0  0  0  0  0  0  0
   -3.3230    0.4930    1.1690 C   0  0  2  0  0  0  0  0  0  0  0  0
   -2.7410    1.7610    1.8400 C   0  0  0  0  0  0  0  0  0  0  0  0
   -3.3500    2.0830    3.1690 C   0  0  0  0  0  0  0  0  0  0  0  0
   -4.6950    2.3400    3.1970 O   0  0  0  0  0  0  0  0  0  0  0  0
   -2.2880   -0.2980    0.5180 C   0  0  2  0  0  0  0  0  0  0  0  0
   -2.7030   -1.6780    0.6910 O   0  0  0  0  0  0  0  0  0  0  0  0
   -1.2430   -0.2360    1.4480 O   0  0  0  0  0  0  0  0  0  0  0  0
   -1.8550   -0.1900   -0.8660 C   0  0  1  0  0  0  0  0  0  0  0  0
   -0.6490   -1.1300   -1.1530 C   0  0  1  0  0  0  0  0  0  0  0  0
    0.6060   -0.7710   -0.5030 C   0  0  0  0  0  0  0  0  0  0  0  0
    1.4990   -1.7550    0.1460 C   0  0  2  0  0  0  0  0  0  0  0  0
    1.5460   -1.7940    1.6330 C   0  0  0  0  0  0  0  0  0  0  0  0
    1.9540   -0.6210    2.2300 O   0  0  0  0  0  0  0  0  0  0  0  0
    2.9720   -1.4780   -0.2430 C   0  0  1  0  0  0  0  0  0  0  0  0
    3.9250   -2.4260    0.4330 C   0  0  0  0  0  0  0  0  0  0  0  0
    3.0670   -1.7270   -1.6330 O   0  0  0  0  0  0  0  0  0  0  0  0
    3.3730   -0.1150    0.0340 C   0  0  0  0  0  0  0  0  0  0  0  0
    2.5550    0.8590    0.2430 O   0  0  0  0  0  0  0  0  0  0  0  0
    4.7430    0.2740    0.0880 N   0  0  0  0  0  0  0  0  0  0  0  0
    5.0570    1.5700    0.3270 N   0  0  0  0  0  0  0  0  0  0  0  0
    6.3620    2.1070    0.7410 C   0  0  0  0  0  0  0  0  0  0  0  0
    7.2720    1.3410    0.9020 O   0  0  0  0  0  0  0  0  0  0  0  0
    6.1620    3.4990    0.8320 N   0  0  0  0  0  0  0  0  0  0  0  0
    7.7960    3.8790    1.2860 C   0  0  0  0  0  0  0  0  0  0  0  0
    8.4930    2.9910    1.3450 O   0  0  0  0  0  0  0  0  0  0  0  0
    7.9320    5.2160    1.4890 O   0  0  0  0  0  0  0  0  0  0  0  0
    1.2540   -3.1840   -0.3270 C   0  0  0  0  0  0  0  0  0  0  0  0
   -0.2400   -3.4550   -0.2830 C   0  0  0  0  0  0  0  0  0  0  0  0
   -1.0090   -2.5660   -1.2220 C   0  0  2  0  0  0  0  0  0  0  0  0
   -0.7160   -3.0290   -2.4980 O   0  0  0  0  0  0  0  0  0  0  0  0
   -0.1110   -1.9950   -3.1700 C   0  0  0  0  0  0  0  0  0  0  0  0
   -0.4990   -0.8760   -2.5260 O   0  0  0  0  0  0  0  0  0  0  0  0
   -2.8730   -0.7020   -1.8670 C   0  0  0  0  0  0  0  0  0  0  0  0
   -3.5010    0.2680   -2.6260 O   0  0  0  0  0  0  0  0  0  0  0  0
   -2.6280    0.7930   -3.5290 C   0  0  0  0  0  0  0  0  0  0  0  0
   -1.5190    1.4560   -2.7920 C   0  0  1  0  0  0  0  0  0  0  0  0
   -1.7500    2.8570   -2.9090 O   0  0  0  0  0  0  0  0  0  0  0  0
   -1.4000    1.1480   -1.3410 C   0  0  0  0  0  0  0  0  0  0  0  0
  1  2  1  0
  2  3  1  0
  3  4  2  0
  3  5  1  0
  5  6  1  6
  5  9  1  0
  6  7  1  0
  7  8  1  0
  9 10  1  6
  9 11  1  0
  9 12  1  0
 12 13  1  0
 12 37  1  6
 12 42  1  0
 13 14  1  1
 13 33  1  0
 13 36  1  0
 14 15  1  0
 15 16  1  1
 15 18  1  0
 15 31  1  0
 16 17  1  0
 18 19  1  1
 18 20  1  0
 18 21  1  0
 21 22  2  0
 21 23  1  0
 23 24  1  0
 24 25  1  0
 25 26  2  0
 25 27  1  0
 27 28  1  0
 28 29  2  0
 28 30  1  0
 31 32  1  0
 33 32  1  1
 33 34  1  0
 34 35  1  0
 35 36  1  0
 37 38  1  0
 38 39  1  0
 39 40  1  0
 40 41  1  1
 40 42  1  0
M  END
