
     RDKit          3D

 43 48  0  0  0  0  0  0  0  0999 V2000
   -6.2550   -2.5140   -2.0690 C   0  0  0  0  0  0  0  0  0  0  0  0
   -5.9230   -2.1880   -0.6060 C   0  0  1  0  0  0  0  0  0  0  0  0
   -6.9830   -2.8020    0.3050 C   0  0  0  0  0  0  0  0  0  0  0  0
   -4.6520   -2.8930   -0.2990 C   0  0  0  0  0  0  0  0  0  0  0  0
   -3.4660   -2.1570   -0.8000 C   0  0  0  0  0  0  0  0  0  0  0  0
   -3.3470   -0.7730   -0.2020 C   0  0  0  0  0  0  0  0  0  0  0  0
   -4.6600   -0.0710   -0.2120 C   0  0  0  0  0  0  0  0  0  0  0  0
   -4.6010    1.3150   -0.0190 C   0  0  0  0  0  0  0  0  0  0  0  0
   -3.3390    1.9490    0.2390 N   0  0  0  0  0  0  0  0  0  0  0  0
   -3.0960    3.3120    0.3820 C   0  0  0  0  0  0  0  0  0  0  0  0
   -4.1310    4.0670    0.2620 O   0  0  0  0  0  0  0  0  0  0  0  0
   -1.8620    4.0140    0.6430 C   0  0  0  0  0  0  0  0  0  0  0  0
   -1.9400    5.4240    0.7450 C   0  0  0  0  0  0  0  0  0  0  0  0
   -0.7880    6.1400    0.9980 C   0  0  0  0  0  0  0  0  0  0  0  0
   -0.8490    7.5020    1.0980 F   0  0  0  0  0  0  0  0  0  0  0  0
    0.4320    5.5270    1.1550 C   0  0  0  0  0  0  0  0  0  0  0  0
    0.4880    4.1560    1.0530 C   0  0  0  0  0  0  0  0  0  0  0  0
   -0.6640    3.3890    0.7950 C   0  0  0  0  0  0  0  0  0  0  0  0
   -0.5290    2.0270    0.7060 O   0  0  0  0  0  0  0  0  0  0  0  0
    0.7560    1.4710    0.8830 C   0  0  0  0  0  0  0  0  0  0  0  0
    0.8150    0.0030    0.7560 C   0  0  0  0  0  0  0  0  0  0  0  0
   -0.2370   -0.6270    0.5070 O   0  0  0  0  0  0  0  0  0  0  0  0
    2.0350   -0.7040    0.9120 N   0  0  0  0  0  0  0  0  0  0  0  0
    2.1900   -2.1310    0.8120 C   0  0  0  0  0  0  0  0  0  0  0  0
    3.3550   -2.5370    1.6570 C   0  0  0  0  0  0  0  0  0  0  0  0
    4.0610   -1.2540    1.9950 C   0  0  0  0  0  0  0  0  0  0  0  0
    3.3570   -0.1780    1.1960 C   0  0  1  0  0  0  0  0  0  0  0  0
    4.0910    0.1010   -0.1090 C   0  0  0  0  0  0  0  0  0  0  0  0
    5.3940    0.6180    0.1160 N   0  0  0  0  0  0  0  0  0  0  0  0
    6.4570   -0.0200   -0.5930 C   0  0  1  0  0  0  0  0  0  0  0  0
    7.6400   -0.1380    0.3520 C   0  0  0  0  0  0  0  0  0  0  0  0
    8.7110   -0.8040   -0.1880 O   0  0  0  0  0  0  0  0  0  0  0  0
    8.3170   -2.1180   -0.5330 C   0  0  0  0  0  0  0  0  0  0  0  0
    7.4080   -1.9430   -1.7540 C   0  0  2  0  0  0  0  0  0  0  0  0
    8.0840   -1.0140   -2.6320 N   0  0  0  0  0  0  0  0  0  0  0  0
    6.1110   -1.3290   -1.2070 C   0  0  0  0  0  0  0  0  0  0  0  0
   -5.8040    1.9670   -0.0720 C   0  0  0  0  0  0  0  0  0  0  0  0
   -7.0240    1.3090   -0.3030 C   0  0  0  0  0  0  0  0  0  0  0  0
   -8.3220    1.7790   -0.4010 C   0  0  0  0  0  0  0  0  0  0  0  0
   -9.1440    0.7050   -0.6470 C   0  0  0  0  0  0  0  0  0  0  0  0
   -8.3340   -0.3880   -0.6920 N   0  0  0  0  0  0  0  0  0  0  0  0
   -7.0580   -0.0450   -0.4870 C   0  0  0  0  0  0  0  0  0  0  0  0
   -5.8400   -0.7380   -0.4370 C   0  0  0  0  0  0  0  0  0  0  0  0
  2  1  1  6
  2  3  1  0
  2  4  1  0
  2 43  1  0
  4  5  1  0
  5  6  1  0
  6  7  1  0
  7  8  2  0
  7 43  1  0
  8  9  1  0
  8 37  1  0
  9 10  1  0
 10 11  2  0
 10 12  1  0
 12 13  2  0
 12 18  1  0
 13 14  1  0
 14 15  1  0
 14 16  2  0
 16 17  1  0
 17 18  2  0
 18 19  1  0
 19 20  1  0
 20 21  1  0
 21 22  2  0
 21 23  1  0
 23 24  1  0
 23 27  1  0
 24 25  1  0
 25 26  1  0
 26 27  1  0
 27 28  1  6
 28 29  1  0
 30 29  1  1
 30 31  1  0
 30 36  1  0
 31 32  1  0
 32 33  1  0
 33 34  1  0
 34 35  1  6
 34 36  1  0
 37 38  2  0
 38 39  1  0
 38 42  1  0
 39 40  2  0
 40 41  1  0
 41 42  1  0
 42 43  2  0
M  CHG  2  29   1  35   1
M  END
