
     RDKit          3D

 15 15  0  0  0  0  0  0  0  0999 V2000
   -3.9090    1.4630    0.3230 C   0  0  0  0  0  0  0  0  0  0  0  0
   -3.4320    0.0570    0.0290 C   0  0  0  0  0  0  0  0  0  0  0  0
   -2.2500    0.0670   -0.9290 C   0  0  1  0  0  0  0  0  0  0  0  0
   -1.0750    0.8200   -0.3910 C   0  0  0  0  0  0  0  0  0  0  0  0
   -0.0540   -0.0650    0.2760 C   0  0  2  0  0  0  0  0  0  0  0  0
    0.4280    0.6450    1.4520 N   0  0  0  0  0  0  0  0  0  0  0  0
    1.1340   -0.3100   -0.5870 C   0  0  0  0  0  0  0  0  0  0  0  0
    0.9860   -0.9160   -1.6800 O   0  0  0  0  0  0  0  0  0  0  0  0
    2.4140    0.0930   -0.2570 O   0  0  0  0  0  0  0  0  0  0  0  0
    3.5510   -0.1180   -1.0380 C   0  0  0  0  0  0  0  0  0  0  0  0
    4.7330    0.4970   -0.2760 C   0  0  0  0  0  0  0  0  0  0  0  0
    5.9070    0.3210   -1.0050 O   0  0  0  0  0  0  0  0  0  0  0  0
   -0.6020   -1.3960    0.6870 C   0  0  0  0  0  0  0  0  0  0  0  0
   -1.6220   -1.9680   -0.2370 C   0  0  0  0  0  0  0  0  0  0  0  0
   -1.9180   -1.1990   -1.3390 O   0  0  0  0  0  0  0  0  0  0  0  0
  1  2  1  0
  3  2  1  1
  3  4  1  0
  3 15  1  0
  4  5  1  0
  5  6  1  1
  5  7  1  0
  5 13  1  0
  7  8  2  0
  7  9  1  0
  9 10  1  0
 10 11  1  0
 11 12  1  0
 13 14  1  0
 14 15  1  0
M  CHG  1   6   1
M  END
