
     RDKit          3D

 15 15  0  0  0  0  0  0  0  0999 V2000
    4.2690   -1.6040   -0.1880 C   0  0  0  0  0  0  0  0  0  0  0  0
    3.5760   -1.1980   -1.3080 O   0  0  0  0  0  0  0  0  0  0  0  0
    2.5590   -0.3000   -1.0590 C   0  0  0  0  0  0  0  0  0  0  0  0
    1.5610   -0.9140   -0.1390 C   0  0  0  0  0  0  0  0  0  0  0  0
    0.3910    0.0310    0.1740 C   0  0  1  0  0  0  0  0  0  0  0  0
    0.9700    1.2520    0.8210 C   0  0  0  0  0  0  0  0  0  0  0  0
   -0.0190    2.1700    1.3320 N   0  0  0  0  0  0  0  0  0  0  0  0
   -0.4490    0.2820   -1.0170 C   0  0  0  0  0  0  0  0  0  0  0  0
   -1.9100    0.2970   -0.5850 C   0  0  1  0  0  0  0  0  0  0  0  0
   -2.7320    0.8300   -1.5470 O   0  0  0  0  0  0  0  0  0  0  0  0
   -3.4670    1.8640   -0.9690 C   0  0  0  0  0  0  0  0  0  0  0  0
   -2.2560   -1.1720   -0.2980 C   0  0  2  0  0  0  0  0  0  0  0  0
   -3.5040   -1.1790    0.3160 O   0  0  0  0  0  0  0  0  0  0  0  0
   -1.1600   -1.6450    0.6370 C   0  0  0  0  0  0  0  0  0  0  0  0
   -0.3730   -0.6380    1.1290 O   0  0  0  0  0  0  0  0  0  0  0  0
  1  2  1  0
  2  3  1  0
  3  4  1  0
  5  4  1  6
  5  6  1  0
  5  8  1  0
  5 15  1  0
  6  7  1  0
  8  9  1  0
  9 10  1  6
  9 12  1  0
 10 11  1  0
 12 13  1  1
 12 14  1  0
 14 15  1  0
M  CHG  1   7   1
M  END
