
     RDKit          3D

 15 15  0  0  0  0  0  0  0  0999 V2000
   -1.6880    2.9480    0.0720 C   0  0  0  0  0  0  0  0  0  0  0  0
   -1.4370    1.4760    0.1650 C   0  0  2  0  0  0  0  0  0  0  0  0
   -2.7360    0.6680    0.2020 C   0  0  0  0  0  0  0  0  0  0  0  0
   -2.2770   -0.7360   -0.2170 C   0  0  1  0  0  0  0  0  0  0  0  0
   -3.4350   -1.7110   -0.1970 C   0  0  0  0  0  0  0  0  0  0  0  0
   -1.8980   -0.6020   -1.5660 O   0  0  0  0  0  0  0  0  0  0  0  0
   -1.1110   -1.2040    0.5810 C   0  0  0  0  0  0  0  0  0  0  0  0
   -0.2240   -0.1580    1.1340 C   0  0  1  0  0  0  0  0  0  0  0  0
    1.0370   -0.0120    0.3110 C   0  0  0  0  0  0  0  0  0  0  0  0
    1.4180    1.1080   -0.0910 O   0  0  0  0  0  0  0  0  0  0  0  0
    1.7470   -1.1090    0.0150 O   0  0  0  0  0  0  0  0  0  0  0  0
    2.9180   -1.2860   -0.6890 C   0  0  0  0  0  0  0  0  0  0  0  0
    4.1490   -0.7170   -0.1020 C   0  0  0  0  0  0  0  0  0  0  0  0
    4.2380    0.6760    0.1240 N   0  0  0  0  0  0  0  0  0  0  0  0
   -0.7520    1.0860    1.2930 O   0  0  0  0  0  0  0  0  0  0  0  0
  2  1  1  1
  2  3  1  0
  2 15  1  0
  3  4  1  0
  4  5  1  6
  4  6  1  0
  4  7  1  0
  7  8  1  0
  8  9  1  6
  8 15  1  0
  9 10  2  0
  9 11  1  0
 11 12  1  0
 12 13  1  0
 13 14  1  0
M  CHG  1  14   1
M  END
