
     RDKit          3D

 15 15  0  0  0  0  0  0  0  0999 V2000
   -2.9650   -1.5170   -0.7970 C   0  0  0  0  0  0  0  0  0  0  0  0
   -2.0310   -0.8700   -0.1220 C   0  0  0  0  0  0  0  0  0  0  0  0
   -1.3210   -1.5210    1.0320 C   0  0  0  0  0  0  0  0  0  0  0  0
    0.1780   -1.2710    0.8120 C   0  0  1  0  0  0  0  0  0  0  0  0
    0.7930   -2.5200    0.7680 O   0  0  0  0  0  0  0  0  0  0  0  0
    0.2850   -0.5930   -0.5340 C   0  0  2  0  0  0  0  0  0  0  0  0
    1.6540   -0.5970   -1.1100 C   0  0  0  0  0  0  0  0  0  0  0  0
    2.6630    0.0810   -0.2830 C   0  0  0  0  0  0  0  0  0  0  0  0
    2.3170    0.5990    0.8100 O   0  0  0  0  0  0  0  0  0  0  0  0
    3.9870    0.1800   -0.6450 O   0  0  0  0  0  0  0  0  0  0  0  0
    4.9840    0.8180    0.1130 C   0  0  0  0  0  0  0  0  0  0  0  0
   -0.2930    0.6480   -0.4280 O   0  0  0  0  0  0  0  0  0  0  0  0
   -1.6590    0.5230   -0.4910 C   0  0  2  0  0  0  0  0  0  0  0  0
   -2.4030    1.4710    0.4100 C   0  0  0  0  0  0  0  0  0  0  0  0
   -2.1490    2.8480    0.1250 N   0  0  0  0  0  0  0  0  0  0  0  0
  1  2  2  0
  2  3  1  0
  2 13  1  0
  3  4  1  0
  4  5  1  6
  4  6  1  0
  6  7  1  1
  6 12  1  0
  7  8  1  0
  8  9  2  0
  8 10  1  0
 10 11  1  0
 12 13  1  0
 13 14  1  1
 14 15  1  0
M  CHG  1  15   1
M  END
