
     RDKit          3D

 22 24  0  0  0  0  0  0  0  0999 V2000
   -4.0790    0.6840   -2.7300 O   0  0  0  0  0  0  0  0  0  0  0  0
   -2.7620    0.4380   -2.2740 C   0  0  0  0  0  0  0  0  0  0  0  0
   -2.7830   -0.9260   -1.6440 C   0  0  1  0  0  0  0  0  0  0  0  0
   -1.5770   -1.3520   -1.1370 O   0  0  0  0  0  0  0  0  0  0  0  0
   -1.1150   -0.4900   -0.1380 C   0  0  2  0  0  0  0  0  0  0  0  0
    0.1080   -0.8820    0.3680 O   0  0  0  0  0  0  0  0  0  0  0  0
    1.1560   -0.0540    0.0900 C   0  0  2  0  0  0  0  0  0  0  0  0
    2.2090   -0.9100   -0.6280 C   0  0  1  0  0  0  0  0  0  0  0  0
    2.4640   -0.6250   -2.0220 N   0  0  0  0  0  0  0  0  0  0  0  0
    3.4190   -0.1720   -0.9950 C   0  0  1  0  0  0  0  0  0  0  0  0
    3.3150    1.2550   -0.5310 C   0  0  0  0  0  0  0  0  0  0  0  0
    3.0150    1.3320    0.9410 C   0  0  2  0  0  0  0  0  0  0  0  0
    4.2820    0.9250    1.6780 C   0  0  0  0  0  0  0  0  0  0  0  0
    4.1090    0.9640    3.0600 O   0  0  0  0  0  0  0  0  0  0  0  0
    1.8450    0.4600    1.3400 C   0  0  1  0  0  0  0  0  0  0  0  0
    0.9560    1.2710    2.0480 O   0  0  0  0  0  0  0  0  0  0  0  0
   -2.1370   -0.1780    0.9010 C   0  0  2  0  0  0  0  0  0  0  0  0
   -1.6840   -0.3460    2.2040 O   0  0  0  0  0  0  0  0  0  0  0  0
   -3.2760   -1.1930    0.7250 C   0  0  1  0  0  0  0  0  0  0  0  0
   -4.1890   -1.1320    1.7470 O   0  0  0  0  0  0  0  0  0  0  0  0
   -3.9180   -0.9630   -0.6460 C   0  0  2  0  0  0  0  0  0  0  0  0
   -4.7770   -2.0400   -0.8610 O   0  0  0  0  0  0  0  0  0  0  0  0
  1  2  1  0
  3  2  1  1
  3  4  1  0
  3 21  1  0
  4  5  1  0
  5  6  1  1
  5 17  1  0
  7  6  1  1
  7  8  1  0
  7 15  1  0
  8  9  1  6
  8 10  1  0
  9 10  1  0
 10 11  1  1
 11 12  1  0
 12 13  1  1
 12 15  1  0
 13 14  1  0
 15 16  1  6
 17 18  1  1
 17 19  1  0
 19 20  1  1
 19 21  1  0
 21 22  1  6
M  CHG  1   9   1
M  END
