
     RDKit          3D

 15 15  0  0  0  0  0  0  0  0999 V2000
    4.8650    1.5550   -0.0610 C   0  0  0  0  0  0  0  0  0  0  0  0
    3.6780    1.1450    0.5820 O   0  0  0  0  0  0  0  0  0  0  0  0
    2.9410    0.0710    0.1830 C   0  0  0  0  0  0  0  0  0  0  0  0
    3.3380   -0.5990   -0.8020 O   0  0  0  0  0  0  0  0  0  0  0  0
    1.6710   -0.3620    0.8610 C   0  0  0  0  0  0  0  0  0  0  0  0
    0.6360   -0.4100   -0.2150 C   0  0  0  0  0  0  0  0  0  0  0  0
   -0.7290   -0.8460    0.2490 C   0  0  2  0  0  0  0  0  0  0  0  0
   -0.5680   -2.2610    0.8210 C   0  0  0  0  0  0  0  0  0  0  0  0
   -0.0780   -3.0420   -0.2300 O   0  0  0  0  0  0  0  0  0  0  0  0
   -1.6650   -0.9760   -0.9330 C   0  0  0  0  0  0  0  0  0  0  0  0
   -2.9760   -0.9620   -0.4250 O   0  0  0  0  0  0  0  0  0  0  0  0
   -3.2890    0.3950   -0.2100 C   0  0  0  0  0  0  0  0  0  0  0  0
   -2.3270    1.0230    0.7470 C   0  0  2  0  0  0  0  0  0  0  0  0
   -1.7520    2.1880    0.1180 N   0  0  0  0  0  0  0  0  0  0  0  0
   -1.3090    0.0550    1.2850 C   0  0  0  0  0  0  0  0  0  0  0  0
  1  2  1  0
  2  3  1  0
  3  4  2  0
  3  5  1  0
  5  6  1  0
  7  6  1  6
  7  8  1  0
  7 10  1  0
  7 15  1  0
  8  9  1  0
 10 11  1  0
 11 12  1  0
 12 13  1  0
 13 14  1  6
 13 15  1  0
M  CHG  1  14   1
M  END
