
     RDKit          3D

 15 15  0  0  0  0  0  0  0  0999 V2000
    4.5430   -1.7750   -0.2660 C   0  0  0  0  0  0  0  0  0  0  0  0
    3.7960   -0.6570    0.1730 O   0  0  0  0  0  0  0  0  0  0  0  0
    2.4310   -0.5470    0.0490 C   0  0  0  0  0  0  0  0  0  0  0  0
    1.8120   -1.5010   -0.4880 O   0  0  0  0  0  0  0  0  0  0  0  0
    1.6440    0.6120    0.5010 C   0  0  1  0  0  0  0  0  0  0  0  0
    2.0930    1.9000   -0.2060 C   0  0  0  0  0  0  0  0  0  0  0  0
    0.8390    2.7090   -0.1770 C   0  0  0  0  0  0  0  0  0  0  0  0
   -0.1760    1.8980    0.3360 O   0  0  0  0  0  0  0  0  0  0  0  0
    0.2160    0.5810    0.0720 C   0  0  2  0  0  0  0  0  0  0  0  0
   -0.6430   -0.3730    0.8340 C   0  0  0  0  0  0  0  0  0  0  0  0
   -2.0480   -0.3210    0.3230 C   0  0  2  0  0  0  0  0  0  0  0  0
   -2.1800   -0.6820   -1.1290 C   0  0  0  0  0  0  0  0  0  0  0  0
   -2.6680    0.9520    0.6310 N   0  0  0  0  0  0  0  0  0  0  0  0
   -2.8420   -1.3760    1.1060 C   0  0  0  0  0  0  0  0  0  0  0  0
   -4.1680   -1.3290    0.6780 O   0  0  0  0  0  0  0  0  0  0  0  0
  1  2  1  0
  2  3  1  0
  3  4  2  0
  5  3  1  6
  5  6  1  0
  5  9  1  0
  6  7  1  0
  7  8  1  0
  8  9  1  0
  9 10  1  1
 10 11  1  0
 11 12  1  6
 11 13  1  0
 11 14  1  0
 14 15  1  0
M  CHG  1  13   1
M  END
