
     RDKit          3D

 15 15  0  0  0  0  0  0  0  0999 V2000
    6.0820   -0.3400    0.4140 C   0  0  0  0  0  0  0  0  0  0  0  0
    4.8430    0.3450    0.4710 O   0  0  0  0  0  0  0  0  0  0  0  0
    3.6780   -0.2650    0.0410 C   0  0  0  0  0  0  0  0  0  0  0  0
    3.7540   -1.4360   -0.3990 O   0  0  0  0  0  0  0  0  0  0  0  0
    2.4000    0.4820    0.1150 C   0  0  0  0  0  0  0  0  0  0  0  0
    1.4030   -0.3300   -0.3650 O   0  0  0  0  0  0  0  0  0  0  0  0
    0.1430    0.2560   -0.3490 C   0  0  1  0  0  0  0  0  0  0  0  0
   -0.3640    0.4160   -1.7340 C   0  0  0  0  0  0  0  0  0  0  0  0
   -1.8330    0.6280   -1.8550 C   0  0  0  0  0  0  0  0  0  0  0  0
   -2.5410   -0.4500   -1.0690 C   0  0  0  0  0  0  0  0  0  0  0  0
   -2.2080   -0.2360    0.3880 C   0  0  2  0  0  0  0  0  0  0  0  0
   -2.9280   -1.2460    1.1510 N   0  0  0  0  0  0  0  0  0  0  0  0
   -2.6590    1.1080    0.8960 C   0  0  0  0  0  0  0  0  0  0  0  0
   -4.0290    1.2160    0.6990 O   0  0  0  0  0  0  0  0  0  0  0  0
   -0.7460   -0.4790    0.5830 C   0  0  0  0  0  0  0  0  0  0  0  0
  1  2  1  0
  2  3  1  0
  3  4  2  0
  3  5  1  0
  5  6  1  0
  7  6  1  6
  7  8  1  0
  7 15  1  0
  8  9  1  0
  9 10  1  0
 10 11  1  0
 11 12  1  1
 11 13  1  0
 11 15  1  0
 13 14  1  0
M  CHG  1  12   1
M  END
