
     RDKit          3D

 34 37  0  0  0  0  0  0  0  0999 V2000
    4.4090   -1.4990    1.7400 C   0  0  0  0  0  0  0  0  0  0  0  0
    4.8680   -0.4370    0.7720 C   0  0  0  0  0  0  0  0  0  0  0  0
    4.2370   -0.6170   -0.5280 C   0  0  2  0  0  0  0  0  0  0  0  0
    4.5920    0.3070   -1.5430 O   0  0  0  0  0  0  0  0  0  0  0  0
    4.1570   -0.4590   -2.6580 C   0  0  0  0  0  0  0  0  0  0  0  0
    2.8250   -1.0800   -2.2390 C   0  0  0  0  0  0  0  0  0  0  0  0
    2.8260   -0.9350   -0.7080 C   0  0  2  0  0  0  0  0  0  0  0  0
    1.6570   -0.3150   -0.1730 C   0  0  2  0  0  0  0  0  0  0  0  0
    1.6890   -0.2180    1.2000 O   0  0  0  0  0  0  0  0  0  0  0  0
    0.5860   -1.4570   -0.4830 C   0  0  0  0  0  0  0  0  0  0  0  0
    0.7890   -2.7220    0.2060 C   0  0  2  0  0  0  0  0  0  0  0  0
    1.2370   -3.7450   -0.6690 O   0  0  0  0  0  0  0  0  0  0  0  0
   -0.4790   -3.2170    0.8190 C   0  0  0  0  0  0  0  0  0  0  0  0
   -1.7040   -3.1230    0.4190 C   0  0  0  0  0  0  0  0  0  0  0  0
   -2.7670   -3.7590    1.3130 C   0  0  0  0  0  0  0  0  0  0  0  0
   -2.2740   -2.4880   -0.7960 C   0  0  0  0  0  0  0  0  0  0  0  0
   -3.2930   -1.4080   -0.4840 C   0  0  1  0  0  0  0  0  0  0  0  0
   -3.6770   -0.7090   -1.7910 C   0  0  0  0  0  0  0  0  0  0  0  0
   -4.4390   -2.0830   -0.0730 O   0  0  0  0  0  0  0  0  0  0  0  0
   -5.1520   -1.2790    0.7570 C   0  0  0  0  0  0  0  0  0  0  0  0
   -4.2850   -0.1790    1.2500 C   0  0  0  0  0  0  0  0  0  0  0  0
   -2.9620   -0.4580    0.5730 C   0  0  2  0  0  0  0  0  0  0  0  0
   -2.3430    0.8610    0.0960 C   0  0  0  0  0  0  0  0  0  0  0  0
   -1.0990    1.0370    0.9180 C   0  0  2  0  0  0  0  0  0  0  0  0
   -1.4690    2.1360    1.7700 O   0  0  0  0  0  0  0  0  0  0  0  0
   -1.3570    3.2720    1.0170 C   0  0  1  0  0  0  0  0  0  0  0  0
   -2.6120    3.9680    0.6390 C   0  0  0  0  0  0  0  0  0  0  0  0
   -0.5420    4.2470    1.8880 C   0  0  0  0  0  0  0  0  0  0  0  0
   -0.5130    2.8750   -0.2230 C   0  0  0  0  0  0  0  0  0  0  0  0
    0.0800    1.6090    0.2930 C   0  0  2  0  0  0  0  0  0  0  0  0
    0.9530    0.8730   -0.6930 C   0  0  1  0  0  0  0  0  0  0  0  0
    1.7990    2.0100   -1.2440 C   0  0  0  0  0  0  0  0  0  0  0  0
    2.7020    2.6790   -0.2840 C   0  0  0  0  0  0  0  0  0  0  0  0
    3.3750    3.6890   -1.0270 O   0  0  0  0  0  0  0  0  0  0  0  0
  1  2  1  0
  3  2  1  1
  3  4  1  0
  3  7  1  0
  4  5  1  0
  5  6  1  0
  7  6  1  6
  7  8  1  0
  8  9  1  1
  8 10  1  0
  8 31  1  0
 10 11  1  0
 11 12  1  6
 11 13  1  0
 13 14  2  0
 14 15  1  0
 14 16  1  0
 16 17  1  0
 17 18  1  6
 17 19  1  0
 17 22  1  0
 19 20  1  0
 20 21  1  0
 22 21  1  6
 22 23  1  0
 24 23  1  6
 24 25  1  0
 24 30  1  0
 25 26  1  0
 26 27  1  6
 26 28  1  0
 26 29  1  0
 30 29  1  6
 30 31  1  0
 31 32  1  1
 32 33  1  0
 33 34  1  0
M  END
