
     RDKit          3D

 34 37  0  0  0  0  0  0  0  0999 V2000
    5.8540    2.3390   -2.5380 C   0  0  0  0  0  0  0  0  0  0  0  0
    6.3500    1.9270   -1.1650 C   0  0  2  0  0  0  0  0  0  0  0  0
    7.5760    1.0740   -1.3490 C   0  0  0  0  0  0  0  0  0  0  0  0
    7.0910   -0.3480   -1.5650 C   0  0  0  0  0  0  0  0  0  0  0  0
    6.6110   -0.8290   -0.2170 C   0  0  0  0  0  0  0  0  0  0  0  0
    5.7020    0.1310    0.4820 C   0  0  2  0  0  0  0  0  0  0  0  0
    4.5290   -0.5790    1.0360 C   0  0  0  0  0  0  0  0  0  0  0  0
    4.3250   -0.5270    2.2700 O   0  0  0  0  0  0  0  0  0  0  0  0
    3.6170   -1.3110    0.2830 O   0  0  0  0  0  0  0  0  0  0  0  0
    2.5010   -1.9650    0.9170 C   0  0  2  0  0  0  0  0  0  0  0  0
    2.9900   -2.9710    1.9370 C   0  0  0  0  0  0  0  0  0  0  0  0
    1.7050   -2.6560   -0.1600 C   0  0  0  0  0  0  0  0  0  0  0  0
    0.2800   -2.1700   -0.0690 C   0  0  0  0  0  0  0  0  0  0  0  0
    0.1610   -1.3590    1.1560 C   0  0  2  0  0  0  0  0  0  0  0  0
   -0.2670   -2.3220    2.2710 C   0  0  0  0  0  0  0  0  0  0  0  0
   -0.8090   -0.2000    1.0550 C   0  0  1  0  0  0  0  0  0  0  0  0
   -0.4430    0.7620   -0.0420 C   0  0  0  0  0  0  0  0  0  0  0  0
   -1.4470    1.9230    0.0600 C   0  0  0  0  0  0  0  0  0  0  0  0
   -2.7960    1.4140   -0.2990 C   0  0  1  0  0  0  0  0  0  0  0  0
   -2.7810    1.0460   -1.6470 O   0  0  0  0  0  0  0  0  0  0  0  0
   -3.2610    0.2530    0.5130 C   0  0  1  0  0  0  0  0  0  0  0  0
   -4.3110   -0.5490   -0.2680 C   0  0  0  0  0  0  0  0  0  0  0  0
   -5.4910    0.3580   -0.5830 C   0  0  1  0  0  0  0  0  0  0  0  0
   -6.5190   -0.4610   -1.3590 C   0  0  0  0  0  0  0  0  0  0  0  0
   -7.5380    0.4670   -1.9860 C   0  0  0  0  0  0  0  0  0  0  0  0
   -7.8110    1.6660   -1.1080 C   0  0  2  0  0  0  0  0  0  0  0  0
   -7.1280    2.8050   -1.5400 O   0  0  0  0  0  0  0  0  0  0  0  0
   -7.5450    1.3660    0.3490 C   0  0  0  0  0  0  0  0  0  0  0  0
   -6.1720    0.8840    0.6490 C   0  0  0  0  0  0  0  0  0  0  0  0
   -2.2280   -0.6190    1.1020 C   0  0  0  0  0  0  0  0  0  0  0  0
    1.5590   -0.9420    1.5040 C   0  0  1  0  0  0  0  0  0  0  0  0
    1.7010   -0.8800    2.9100 O   0  0  0  0  0  0  0  0  0  0  0  0
    5.2880    1.3120   -0.3400 C   0  0  2  0  0  0  0  0  0  0  0  0
    4.2700    0.8800   -1.1990 O   0  0  0  0  0  0  0  0  0  0  0  0
  2  1  1  6
  2  3  1  0
  2 33  1  0
  3  4  1  0
  4  5  1  0
  5  6  1  0
  6  7  1  6
  6 33  1  0
  7  8  2  0
  7  9  1  0
  9 10  1  0
 10 11  1  1
 10 12  1  0
 10 31  1  0
 12 13  1  0
 13 14  1  0
 14 15  1  1
 14 16  1  0
 14 31  1  0
 16 17  1  6
 16 30  1  0
 17 18  1  0
 18 19  1  0
 19 20  1  6
 19 21  1  0
 21 22  1  6
 21 30  1  0
 23 22  1  1
 23 24  1  0
 23 29  1  0
 24 25  1  0
 25 26  1  0
 26 27  1  6
 26 28  1  0
 28 29  1  0
 31 32  1  1
 33 34  1  6
M  END
