
     RDKit          3D

 35 38  0  0  0  0  0  0  0  0999 V2000
    3.3250    0.4080   -0.2990 O   0  0  0  0  0  0  0  0  0  0  0  0
    3.6480   -0.1090    0.8010 C   0  0  0  0  0  0  0  0  0  0  0  0
    2.7000   -0.6320    1.7990 C   0  0  0  0  0  0  0  0  0  0  0  0
    1.2800   -0.4980    1.3810 C   0  0  0  0  0  0  0  0  0  0  0  0
    0.4860   -1.5230    1.2430 C   0  0  0  0  0  0  0  0  0  0  0  0
   -0.9240   -1.4540    0.8330 C   0  0  0  0  0  0  0  0  0  0  0  0
   -1.6610   -2.5240    0.6770 C   0  0  0  0  0  0  0  0  0  0  0  0
   -3.0400   -2.6130    0.2930 C   0  0  0  0  0  0  0  0  0  0  0  0
   -4.2060   -2.0900    0.7480 C   0  0  0  0  0  0  0  0  0  0  0  0
   -5.3560   -2.3490    0.1280 C   0  0  0  0  0  0  0  0  0  0  0  0
   -5.3830   -3.1510   -0.9830 C   0  0  0  0  0  0  0  0  0  0  0  0
   -6.7000   -3.6560   -1.9800 S   0  0  2  0  0  0  0  0  0  0  0  0
   -6.4280   -5.0890   -2.4000 O   0  0  0  0  0  0  0  0  0  0  0  0
   -6.8970   -2.7800   -3.1760 O   0  0  0  0  0  0  0  0  0  0  0  0
   -3.6630   -3.5710   -1.1670 S   0  0  0  0  0  0  0  0  0  0  0  0
   -1.4270   -0.1140    0.5720 C   0  0  0  0  0  0  0  0  0  0  0  0
   -2.6280    0.1130    0.1780 N   0  0  0  0  0  0  0  0  0  0  0  0
   -3.0300    1.4490   -0.0510 C   0  0  0  0  0  0  0  0  0  0  0  0
   -3.1270    1.9410   -1.3530 C   0  0  0  0  0  0  0  0  0  0  0  0
   -3.5220    3.2470   -1.5740 C   0  0  0  0  0  0  0  0  0  0  0  0
   -3.6130    3.7230   -2.8790 O   0  0  0  0  0  0  0  0  0  0  0  0
   -3.8130    4.0410   -0.4830 C   0  0  0  0  0  0  0  0  0  0  0  0
   -3.7240    3.5740    0.8160 C   0  0  0  0  0  0  0  0  0  0  0  0
   -3.3260    2.2590    1.0170 C   0  0  0  0  0  0  0  0  0  0  0  0
   -3.2220    1.7540    2.2620 F   0  0  0  0  0  0  0  0  0  0  0  0
   -0.4780    1.0090    0.7470 C   0  0  0  0  0  0  0  0  0  0  0  0
    0.7730    0.8390    1.1200 C   0  0  0  0  0  0  0  0  0  0  0  0
    1.8370    2.2390    1.3040 Cl  0  0  0  0  0  0  0  0  0  0  0  0
    5.0370   -0.1930    1.1020 N   0  0  0  0  0  0  0  0  0  0  0  0
    6.0170    0.2840    0.2060 C   0  0  0  0  0  0  0  0  0  0  0  0
    6.8430    1.2480    0.6060 C   0  0  0  0  0  0  0  0  0  0  0  0
    8.0570    1.7820   -0.6190 S   0  0  0  0  0  0  0  0  0  0  0  0
    8.4010    0.3070   -1.6500 C   0  0  0  0  0  0  0  0  0  0  0  0
    7.4910   -0.7090   -1.3670 O   0  0  0  0  0  0  0  0  0  0  0  0
    6.2010   -0.2180   -1.1810 C   0  0  0  0  0  0  0  0  0  0  0  0
  1  2  2  0
  2  3  1  0
  2 29  1  0
  3  4  1  0
  4  5  2  0
  4 27  1  0
  5  6  1  0
  6  7  2  3
  6 16  1  0
  7  8  1  0
  8  9  2  0
  8 15  1  0
  9 10  1  0
 10 11  2  0
 12 11  1  6
 11 15  1  0
 12 13  2  0
 12 14  2  0
 16 17  2  3
 16 26  1  0
 17 18  1  0
 18 19  2  0
 18 24  1  0
 19 20  1  0
 20 21  1  0
 20 22  2  0
 22 23  1  0
 23 24  2  0
 24 25  1  0
 26 27  2  0
 27 28  1  0
 29 30  1  0
 30 31  2  0
 30 35  1  0
 31 32  1  0
 32 33  1  0
 33 34  1  0
 34 35  1  0
M  END
