
     RDKit          3D

 35 38  0  0  0  0  0  0  0  0999 V2000
   -6.3990   -5.2710    0.8860 C   0  0  0  0  0  0  0  0  0  0  0  0
   -6.4690   -3.8810    0.6100 O   0  0  0  0  0  0  0  0  0  0  0  0
   -5.3550   -3.0980    0.4080 C   0  0  0  0  0  0  0  0  0  0  0  0
   -4.2320   -3.6900    0.4850 O   0  0  0  0  0  0  0  0  0  0  0  0
   -5.3960   -1.6560    0.1180 C   0  0  0  0  0  0  0  0  0  0  0  0
   -5.0480   -0.6410    1.5790 S   0  0  0  0  0  0  0  0  0  0  0  0
   -5.1270    1.0910    1.0640 C   0  0  0  0  0  0  0  0  0  0  0  0
   -6.2730    1.7940    1.1970 C   0  0  0  0  0  0  0  0  0  0  0  0
   -6.3890    3.1140    0.8010 C   0  0  0  0  0  0  0  0  0  0  0  0
   -5.2870    3.7180    0.2510 C   0  0  0  0  0  0  0  0  0  0  0  0
   -4.1000    3.0010    0.1080 C   0  0  0  0  0  0  0  0  0  0  0  0
   -3.9790    1.6930    0.5000 C   0  0  0  0  0  0  0  0  0  0  0  0
   -2.5770    0.7030    0.3690 S   0  0  0  0  0  0  0  0  0  0  0  0
   -1.1960    1.2810   -0.5940 C   0  0  0  0  0  0  0  0  0  0  0  0
    0.0030    0.7650   -0.2920 C   0  0  0  0  0  0  0  0  0  0  0  0
    1.2420    1.0820   -0.9630 C   0  0  0  0  0  0  0  0  0  0  0  0
    1.1520    1.9680   -2.0160 C   0  0  0  0  0  0  0  0  0  0  0  0
    2.6270    2.3890   -2.7870 S   0  0  0  0  0  0  0  0  0  0  0  0
    3.9520    1.6020   -2.0650 C   0  0  0  0  0  0  0  0  0  0  0  0
    5.1600    1.7390   -2.4400 O   0  0  0  0  0  0  0  0  0  0  0  0
    3.6530    0.7790   -1.0160 N   0  0  0  0  0  0  0  0  0  0  0  0
    4.8180    0.1800   -0.3850 C   0  0  0  0  0  0  0  0  0  0  0  0
    5.0000   -1.1700   -0.2930 C   0  0  0  0  0  0  0  0  0  0  0  0
    6.1690   -1.6780    0.3240 C   0  0  0  0  0  0  0  0  0  0  0  0
    7.1380   -0.8620    0.8380 C   0  0  0  0  0  0  0  0  0  0  0  0
    8.3010   -1.2380    1.4480 O   0  0  0  0  0  0  0  0  0  0  0  0
    8.7020   -2.5500    1.6510 C   0  0  1  0  0  0  0  0  0  0  0  0
    9.8920   -2.7680    0.9480 F   0  0  0  0  0  0  0  0  0  0  0  0
    9.0300   -2.8780    3.3930 Cl  0  0  0  0  0  0  0  0  0  0  0  0
    6.9440    0.5290    0.7400 C   0  0  0  0  0  0  0  0  0  0  0  0
    5.8050    0.9910    0.1400 C   0  0  0  0  0  0  0  0  0  0  0  0
    2.4460    0.5470   -0.5270 C   0  0  0  0  0  0  0  0  0  0  0  0
    2.3270   -0.2590    0.4650 O   0  0  0  0  0  0  0  0  0  0  0  0
   -0.1140    2.4860   -2.3800 N   0  0  0  0  0  0  0  0  0  0  0  0
   -1.2660    2.3870   -1.5410 C   0  0  0  0  0  0  0  0  0  0  0  0
  1  2  1  0
  2  3  1  0
  3  4  2  0
  3  5  1  0
  5  6  1  0
  6  7  1  0
  7  8  2  0
  7 12  1  0
  8  9  1  0
  9 10  2  0
 10 11  1  0
 11 12  2  0
 12 13  1  0
 13 14  1  0
 14 15  2  0
 14 35  1  0
 15 16  1  0
 16 17  2  0
 16 32  1  0
 17 18  1  0
 17 34  1  0
 18 19  1  0
 19 20  2  0
 19 21  1  0
 21 22  1  0
 21 32  1  0
 22 23  2  0
 22 31  1  0
 23 24  1  0
 24 25  2  0
 25 26  1  0
 25 30  1  0
 26 27  1  0
 27 28  1  6
 27 29  1  0
 30 31  2  0
 32 33  2  0
 34 35  1  0
M  END
