
     RDKit          3D

 25 29  0  0  0  0  0  0  0  0999 V2000
    1.4110   -1.5950    1.3160 C   0  0  0  0  0  0  0  0  0  0  0  0
    1.0240   -0.2650    1.3210 N   0  0  0  0  0  0  0  0  0  0  0  0
    0.6500    0.3490   -0.0130 C   0  0  2  0  0  0  0  0  0  0  0  0
    1.9050    0.2290   -0.6990 C   0  0  0  0  0  0  0  0  0  0  0  0
    2.3590   -0.5390   -1.5950 N   0  0  0  0  0  0  0  0  0  0  0  0
    3.7110   -0.4000   -2.0920 C   0  0  0  0  0  0  0  0  0  0  0  0
    2.6390    1.3190   -0.0590 O   0  0  0  0  0  0  0  0  0  0  0  0
    1.6520    2.3250    0.0010 N   0  0  2  0  0  0  0  0  0  0  0  0
    1.0880    3.5010   -0.1630 N   0  0  0  0  0  0  0  0  0  0  0  0
   -0.0410    2.9620   -0.0610 C   0  0  1  0  0  0  0  0  0  0  0  0
   -1.6340    3.7830   -0.1970 Cl  0  0  0  0  0  0  0  0  0  0  0  0
    0.4910    1.7650    0.4350 C   0  0  1  0  0  0  0  0  0  0  0  0
    0.0760    1.5620    1.8760 C   0  0  0  0  0  0  0  0  0  0  0  0
    0.5950    2.1310    2.8590 C   0  0  0  0  0  0  0  0  0  0  0  0
    1.6090    3.0110    2.7060 F   0  0  0  0  0  0  0  0  0  0  0  0
    0.0350    1.8210    4.4910 Cl  0  0  0  0  0  0  0  0  0  0  0  0
   -1.0370    0.5950    1.9320 C   0  0  0  0  0  0  0  0  0  0  0  0
   -1.5530    0.2480    3.0150 O   0  0  0  0  0  0  0  0  0  0  0  0
   -1.5480    0.0330    0.7040 N   0  0  0  0  0  0  0  0  0  0  0  0
   -2.9390   -0.3270    0.5980 C   0  0  0  0  0  0  0  0  0  0  0  0
   -3.1990   -1.3560   -0.4590 C   0  0  0  0  0  0  0  0  0  0  0  0
   -2.0220   -2.2160   -0.7820 C   0  0  0  0  0  0  0  0  0  0  0  0
   -0.7150   -1.5600   -0.9790 C   0  0  0  0  0  0  0  0  0  0  0  0
   -0.6290   -0.1610   -0.4530 C   0  0  2  0  0  0  0  0  0  0  0  0
   -1.2420    0.7230   -1.5440 C   0  0  0  0  0  0  0  0  0  0  0  0
  1  2  1  0
  3  2  1  1
  3  4  1  0
  3 12  1  0
  3 24  1  0
  4  5  2  3
  4  7  1  0
  5  6  1  0
  8  7  1  1
  8  9  1  0
  8 12  1  0
  9 10  2  0
 10 11  1  6
 10 12  1  0
 12 13  1  1
 13 14  2  3
 13 17  1  0
 14 15  1  0
 14 16  1  0
 17 18  2  0
 17 19  1  0
 19 20  1  0
 19 24  1  0
 20 21  1  0
 21 22  1  0
 22 23  1  0
 23 24  1  0
 24 25  1  6
 10  8  1  0
M  CHG  2   5   1   8   1
M  END
