
     RDKit          3D

 27 30  0  0  0  0  0  0  0  0999 V2000
    9.8390    0.3270   -0.0790 C   0  0  0  0  0  0  0  0  0  0  0  0
    8.3670    0.0410   -0.0410 C   0  0  0  0  0  0  0  0  0  0  0  0
    7.9960   -1.2770    0.0430 C   0  0  0  0  0  0  0  0  0  0  0  0
    6.6340   -1.5880    0.0810 C   0  0  0  0  0  0  0  0  0  0  0  0
    5.6710   -0.6090    0.0380 C   0  0  0  0  0  0  0  0  0  0  0  0
    4.2520   -0.9830    0.0840 C   0  0  0  0  0  0  0  0  0  0  0  0
    3.9550   -2.2130    0.2420 O   0  0  0  0  0  0  0  0  0  0  0  0
    3.2060   -0.0620   -0.0380 N   0  0  0  0  0  0  0  0  0  0  0  0
    1.8160   -0.3300   -0.0120 C   0  0  0  0  0  0  0  0  0  0  0  0
    1.2620   -1.5710   -0.0950 C   0  0  0  0  0  0  0  0  0  0  0  0
   -0.1180   -1.7760   -0.0470 C   0  0  0  0  0  0  0  0  0  0  0  0
   -0.9870   -0.7330    0.0870 C   0  0  0  0  0  0  0  0  0  0  0  0
   -2.3340   -0.6240    0.1610 N   0  0  0  0  0  0  0  0  0  0  0  0
   -2.6610    0.6690    0.2900 C   0  0  0  0  0  0  0  0  0  0  0  0
   -4.0530    1.1730    0.4020 C   0  0  0  0  0  0  0  0  0  0  0  0
   -5.0000    0.0790    0.3510 N   0  0  2  0  0  0  0  0  0  0  0  0
   -5.4150   -0.1280   -0.9990 C   0  0  0  0  0  0  0  0  0  0  0  0
   -6.6870    0.6000   -1.3180 C   0  0  0  0  0  0  0  0  0  0  0  0
   -7.8000   -0.0510   -0.5170 C   0  0  0  0  0  0  0  0  0  0  0  0
   -7.3610   -0.3310    0.9000 C   0  0  0  0  0  0  0  0  0  0  0  0
   -6.0830    0.3860    1.2540 C   0  0  0  0  0  0  0  0  0  0  0  0
   -1.5100    1.3550    0.2960 N   0  0  0  0  0  0  0  0  0  0  0  0
   -0.4480    0.5380    0.1730 C   0  0  0  0  0  0  0  0  0  0  0  0
    0.9100    0.7390    0.1250 C   0  0  0  0  0  0  0  0  0  0  0  0
    6.0720    0.6950   -0.0450 C   0  0  0  0  0  0  0  0  0  0  0  0
    7.4300    1.0390   -0.0850 C   0  0  0  0  0  0  0  0  0  0  0  0
    8.0650    3.0320   -0.2120 I   0  0  0  0  0  0  0  0  0  0  0  0
  1  2  1  0
  2  3  2  0
  2 26  1  0
  3  4  1  0
  4  5  2  0
  5  6  1  0
  5 25  1  0
  6  7  2  0
  6  8  1  0
  8  9  1  0
  9 10  2  0
  9 24  1  0
 10 11  1  0
 11 12  2  0
 12 13  1  0
 12 23  1  0
 13 14  2  0
 14 15  1  0
 14 22  1  0
 16 15  1  6
 16 17  1  0
 16 21  1  0
 17 18  1  0
 18 19  1  0
 19 20  1  0
 20 21  1  0
 22 23  1  0
 23 24  2  0
 25 26  2  0
 26 27  1  0
M  CHG  1  16   1
M  END
