
     RDKit          3D

 24 28  0  0  0  0  0  0  0  0999 V2000
    4.5010    1.4940   -1.0150 C   0  0  0  0  0  0  0  0  0  0  0  0
    3.7150    0.5840   -0.2350 N   0  0  0  0  0  0  0  0  0  0  0  0
    4.0360   -0.1180    0.9940 C   0  0  0  0  0  0  0  0  0  0  0  0
    3.0360   -0.8610    1.3730 C   0  0  0  0  0  0  0  0  0  0  0  0
    2.2530   -1.8210    2.2380 C   0  0  0  0  0  0  0  0  0  0  0  0
    0.8440   -1.3680    1.8700 C   0  0  0  0  0  0  0  0  0  0  0  0
    0.8270   -0.8640    0.6520 C   0  0  0  0  0  0  0  0  0  0  0  0
    0.1180   -0.2590   -0.4450 N   0  0  0  0  0  0  0  0  0  0  0  0
    1.1530    0.4320   -1.2180 C   0  0  0  0  0  0  0  0  0  0  0  0
    0.6420    1.0320   -2.2480 C   0  0  0  0  0  0  0  0  0  0  0  0
   -0.2690    1.5330   -3.2290 N   0  0  0  0  0  0  0  0  0  0  0  0
   -0.7530    0.8060   -2.2610 C   0  0  0  0  0  0  0  0  0  0  0  0
   -1.1270   -0.0450   -1.0790 C   0  0  1  0  0  0  0  0  0  0  0  0
   -1.6670   -1.1910   -1.6710 F   0  0  0  0  0  0  0  0  0  0  0  0
   -2.1930    0.6720   -0.3340 C   0  0  1  0  0  0  0  0  0  0  0  0
   -1.8010    2.0480    0.1520 C   0  0  0  0  0  0  0  0  0  0  0  0
   -3.1390    1.1010   -1.5590 C   0  0  0  0  0  0  0  0  0  0  0  0
   -3.1430   -0.0830    0.4910 C   0  0  2  0  0  0  0  0  0  0  0  0
   -2.6370   -0.9000    1.6150 C   0  0  0  0  0  0  0  0  0  0  0  0
   -3.9470   -0.8970   -0.3440 O   0  0  0  0  0  0  0  0  0  0  0  0
   -4.0660    0.8320    1.0760 O   0  0  0  0  0  0  0  0  0  0  0  0
    2.4120    0.2200   -0.5710 N   0  0  0  0  0  0  0  0  0  0  0  0
    2.2060   -0.9980    0.1260 C   0  0  1  0  0  0  0  0  0  0  0  0
    2.4610   -2.1860   -0.6020 N   0  0  0  0  0  0  0  0  0  0  0  0
  1  2  1  0
  2  3  1  0
  2 22  1  0
  3  4  2  0
  4  5  1  0
  4 23  1  0
  5  6  1  0
  6  7  2  0
  7  8  1  0
  7 23  1  0
  8  9  1  0
  8 13  1  0
  9 10  2  0
  9 22  1  0
 10 11  1  0
 10 12  1  0
 11 12  2  0
 12 13  1  0
 13 14  1  6
 13 15  1  0
 15 16  1  1
 15 17  1  0
 15 18  1  0
 18 19  1  1
 18 20  1  0
 18 21  1  0
 22 23  1  0
 23 24  1  6
M  END
