
     RDKit          3D

 23 24  0  0  0  0  0  0  0  0999 V2000
    0.6640    3.3400    0.1780 C   0  0  0  0  0  0  0  0  0  0  0  0
    1.4270    2.2720    0.1800 C   0  0  0  0  0  0  0  0  0  0  0  0
    1.5320    1.3280   -0.9670 C   0  0  1  0  0  0  0  0  0  0  0  0
    3.0270    1.3880   -1.3510 C   0  0  0  0  0  0  0  0  0  0  0  0
    1.1640   -0.0830   -0.6700 C   0  0  1  0  0  0  0  0  0  0  0  0
    1.3590   -0.7670   -1.8930 F   0  0  0  0  0  0  0  0  0  0  0  0
    2.2560   -0.5260    0.1640 N   0  0  0  0  0  0  0  0  0  0  0  0
    2.2710   -1.8840    0.5370 C   0  0  0  0  0  0  0  0  0  0  0  0
    0.9240   -2.1630    1.1640 C   0  0  0  0  0  0  0  0  0  0  0  0
   -0.2080   -1.7590    0.2410 C   0  0  2  0  0  0  0  0  0  0  0  0
   -1.3810   -2.0230    1.0760 N   0  0  0  0  0  0  0  0  0  0  0  0
   -0.1820   -2.6850   -0.8300 N   0  0  0  0  0  0  0  0  0  0  0  0
   -0.1440   -0.3410   -0.1560 N   0  0  1  0  0  0  0  0  0  0  0  0
   -0.2380    0.2910    1.0860 N   0  0  0  0  0  0  0  0  0  0  0  0
   -1.2400    1.0230    1.7750 C   0  0  0  0  0  0  0  0  0  0  0  0
   -1.3260    0.9350    3.0880 C   0  0  0  0  0  0  0  0  0  0  0  0
   -2.5720    1.8500    3.8980 Cl  0  0  0  0  0  0  0  0  0  0  0  0
   -2.2060    1.8960    1.0730 C   0  0  0  0  0  0  0  0  0  0  0  0
   -2.4230    2.0120   -0.2530 C   0  0  0  0  0  0  0  0  0  0  0  0
   -1.6870    1.2460   -1.1470 O   0  0  0  0  0  0  0  0  0  0  0  0
   -1.2040   -0.0890   -1.0640 C   0  0  1  0  0  0  0  0  0  0  0  0
   -0.9010   -0.4070   -2.5200 C   0  0  0  0  0  0  0  0  0  0  0  0
   -2.4790   -0.9030   -0.7920 C   0  0  0  0  0  0  0  0  0  0  0  0
  1  2  2  0
  2  3  1  0
  3  4  1  1
  3  5  1  0
  5  6  1  6
  5  7  1  0
  5 13  1  0
  7  8  1  0
  8  9  1  0
  9 10  1  0
 10 11  1  1
 10 12  1  0
 10 13  1  0
 13 14  1  1
 13 21  1  0
 14 15  1  0
 15 16  2  3
 15 18  1  0
 16 17  1  0
 18 19  2  0
 19 20  1  0
 20 21  1  0
 21 22  1  6
 21 23  1  0
M  CHG  1  13   1
M  END
