
     RDKit          3D

 25 27  0  0  0  0  0  0  0  0999 V2000
   -1.7240    3.2930    0.0450 C   0  0  0  0  0  0  0  0  0  0  0  0
   -1.0080    2.1970   -0.0680 C   0  0  0  0  0  0  0  0  0  0  0  0
   -1.4330    1.0680   -0.9010 C   0  0  1  0  0  0  0  0  0  0  0  0
   -0.7650    0.9960   -2.1040 F   0  0  0  0  0  0  0  0  0  0  0  0
   -1.3050   -0.2410   -0.2110 C   0  0  1  0  0  0  0  0  0  0  0  0
    0.0010   -0.5680    0.1960 O   0  0  0  0  0  0  0  0  0  0  0  0
    0.1760   -0.1060    1.5020 C   0  0  0  0  0  0  0  0  0  0  0  0
    1.4410    0.1150    2.1530 N   0  0  0  0  0  0  0  0  0  0  0  0
    2.0000    1.6780    2.6080 Cl  0  0  0  0  0  0  0  0  0  0  0  0
    2.2300   -0.9980    2.4140 N   0  0  0  0  0  0  0  0  0  0  0  0
    3.2760   -1.3070    1.8040 N   0  0  0  0  0  0  0  0  0  0  0  0
    3.8130   -0.5350    0.7270 C   0  0  0  0  0  0  0  0  0  0  0  0
    5.0060    0.0310    0.8380 C   0  0  0  0  0  0  0  0  0  0  0  0
    5.3210    0.7560   -0.3860 C   0  0  0  0  0  0  0  0  0  0  0  0
    6.1800    1.6600   -0.4650 O   0  0  0  0  0  0  0  0  0  0  0  0
    4.4270    0.1820   -1.4220 C   0  0  0  0  0  0  0  0  0  0  0  0
    3.2420   -0.2230   -0.5800 C   0  0  0  0  0  0  0  0  0  0  0  0
   -1.0010    0.0760    1.9930 N   0  0  0  0  0  0  0  0  0  0  0  0
   -2.0110   -0.2400    1.0830 N   0  0  0  0  0  0  0  0  0  0  0  0
   -3.3560   -0.5610    0.7600 C   0  0  0  0  0  0  0  0  0  0  0  0
   -4.4230   -0.2260    1.5710 O   0  0  0  0  0  0  0  0  0  0  0  0
   -3.4040   -1.2150   -0.4150 C   0  0  0  0  0  0  0  0  0  0  0  0
   -4.6100   -1.7300   -1.1150 C   0  0  0  0  0  0  0  0  0  0  0  0
   -2.0280   -1.3310   -0.8930 C   0  0  0  0  0  0  0  0  0  0  0  0
   -1.5330   -2.2110   -1.7470 C   0  0  0  0  0  0  0  0  0  0  0  0
  1  2  2  0
  2  3  1  0
  3  4  1  6
  3  5  1  0
  5  6  1  1
  5 19  1  0
  5 24  1  0
  6  7  1  0
  7  8  1  0
  7 18  2  0
  8  9  1  0
  8 10  1  0
 10 11  2  3
 11 12  1  0
 12 13  2  0
 12 17  1  0
 13 14  1  0
 14 15  2  0
 14 16  1  0
 16 17  1  0
 18 19  1  0
 19 20  1  0
 20 21  1  0
 20 22  2  0
 22 23  1  0
 22 24  1  0
 24 25  2  0
M  END
