
     RDKit          3D

 23 23  0  0  0  0  0  0  0  0999 V2000
    4.8380   -1.0350   -0.0620 C   0  0  0  0  0  0  0  0  0  0  0  0
    4.2000    0.1320   -0.1610 C   0  0  0  0  0  0  0  0  0  0  0  0
    4.9070    1.2640    0.2850 O   0  0  0  0  0  0  0  0  0  0  0  0
    5.6660    1.1230    1.4080 N   0  0  0  0  0  0  0  0  0  0  0  0
    5.4030    1.6930    2.4980 O   0  0  0  0  0  0  0  0  0  0  0  0
    2.9220    0.2500   -0.6690 N   0  0  0  0  0  0  0  0  0  0  0  0
    1.8650   -0.7930   -0.6050 C   0  0  0  0  0  0  0  0  0  0  0  0
    0.7670    0.1260   -0.2260 C   0  0  2  0  0  0  0  0  0  0  0  0
    1.2260    0.6650    1.0140 F   0  0  0  0  0  0  0  0  0  0  0  0
   -0.5820   -0.3180    0.0030 C   0  0  1  0  0  0  0  0  0  0  0  0
   -0.3950   -1.3370    1.2170 C   0  0  0  0  0  0  0  0  0  0  0  0
   -1.3750    0.7550    0.6550 C   0  0  0  0  0  0  0  0  0  0  0  0
   -1.0720    1.1450    2.0780 C   0  0  0  0  0  0  0  0  0  0  0  0
   -2.3570    1.4170    0.0810 C   0  0  0  0  0  0  0  0  0  0  0  0
   -3.2050    2.4500    0.5310 C   0  0  0  0  0  0  0  0  0  0  0  0
   -3.3210    3.1080    1.6040 N   0  0  0  0  0  0  0  0  0  0  0  0
   -1.3640   -1.1170   -0.9410 C   0  0  2  0  0  0  0  0  0  0  0  0
   -0.8170   -2.5160   -1.2120 C   0  0  0  0  0  0  0  0  0  0  0  0
   -1.4750   -0.5160   -2.3330 C   0  0  0  0  0  0  0  0  0  0  0  0
   -2.7460   -1.3320   -0.4070 C   0  0  0  0  0  0  0  0  0  0  0  0
    0.9820    1.2420   -1.1140 N   0  0  0  0  0  0  0  0  0  0  0  0
    2.2490    1.2950   -1.3550 C   0  0  0  0  0  0  0  0  0  0  0  0
    3.1140    2.4760   -2.3640 Cl  0  0  0  0  0  0  0  0  0  0  0  0
  1  2  2  0
  2  3  1  0
  2  6  1  0
  3  4  1  0
  4  5  2  0
  6  7  1  0
  6 22  1  0
  7  8  1  0
  8  9  1  1
  8 10  1  0
  8 21  1  0
 10 11  1  1
 10 12  1  0
 10 17  1  0
 12 13  1  0
 12 14  2  3
 14 15  1  0
 15 16  2  0
 17 18  1  6
 17 19  1  0
 17 20  1  0
 21 22  2  0
 22 23  1  0
M  CHG  1  16   1
M  END
