
     RDKit          3D

 13 12  0  0  0  0  0  0  0  0999 V2000
   -3.4660   -1.8150    0.3020 N   0  0  0  0  0  0  0  0  0  0  0  0
   -2.4510   -1.6970   -0.7230 C   0  0  0  0  0  0  0  0  0  0  0  0
   -1.3640   -0.7670   -0.1960 C   0  0  1  0  0  0  0  0  0  0  0  0
   -0.3540   -0.6220   -1.1290 O   0  0  0  0  0  0  0  0  0  0  0  0
    0.8580   -1.0050   -0.6050 C   0  0  0  0  0  0  0  0  0  0  0  0
    1.3300   -0.1590    0.5490 C   0  0  0  0  0  0  0  0  0  0  0  0
    1.4800    1.1660    0.2110 O   0  0  0  0  0  0  0  0  0  0  0  0
    2.3700    1.3750   -0.7970 C   0  0  0  0  0  0  0  0  0  0  0  0
    3.7480    0.8600   -0.4550 C   0  0  0  0  0  0  0  0  0  0  0  0
    4.2310    1.4990    0.6840 O   0  0  0  0  0  0  0  0  0  0  0  0
   -2.0150    0.5430    0.1090 C   0  0  0  0  0  0  0  0  0  0  0  0
   -1.6290    1.7640   -0.5140 N   0  0  0  0  0  0  0  0  0  0  0  0
   -2.9120    0.5740    0.9230 O   0  0  0  0  0  0  0  0  0  0  0  0
  1  2  1  0
  3  2  1  6
  3  4  1  0
  3 11  1  0
  4  5  1  0
  5  6  1  0
  6  7  1  0
  7  8  1  0
  8  9  1  0
  9 10  1  0
 11 12  1  0
 11 13  2  0
M  CHG  2   1   1  12   1
M  END
