
     RDKit          3D

 13 12  0  0  0  0  0  0  0  0999 V2000
    0.3730   -1.7890   -0.4740 C   0  0  0  0  0  0  0  0  0  0  0  0
    0.2630   -0.4680    0.2660 C   0  0  2  0  0  0  0  0  0  0  0  0
    1.4640    0.2210    0.1770 O   0  0  0  0  0  0  0  0  0  0  0  0
    1.9260    0.5210   -1.0630 C   0  0  0  0  0  0  0  0  0  0  0  0
    3.2730    1.2430   -0.8290 C   0  0  0  0  0  0  0  0  0  0  0  0
    2.9900    2.3620   -0.0770 O   0  0  0  0  0  0  0  0  0  0  0  0
    0.0730   -0.7660    1.7040 C   0  0  0  0  0  0  0  0  0  0  0  0
   -0.9650   -1.5740    2.2410 N   0  0  0  0  0  0  0  0  0  0  0  0
    0.8520   -0.2980    2.5130 O   0  0  0  0  0  0  0  0  0  0  0  0
   -0.8180    0.4000   -0.2610 C   0  0  2  0  0  0  0  0  0  0  0  0
   -0.8860    1.5860    0.4860 O   0  0  0  0  0  0  0  0  0  0  0  0
   -2.1960   -0.1730   -0.3020 C   0  0  0  0  0  0  0  0  0  0  0  0
   -3.0310    0.8400   -0.9860 N   0  0  0  0  0  0  0  0  0  0  0  0
  2  1  1  6
  2  3  1  0
  2  7  1  0
  2 10  1  0
  3  4  1  0
  4  5  1  0
  5  6  1  0
  7  8  1  0
  7  9  2  0
 10 11  1  1
 10 12  1  0
 12 13  1  0
M  CHG  2   8   1  13   1
M  END
