
     RDKit          3D

 11 11  0  0  0  0  0  0  0  0999 V2000
   -2.0450   -2.3810   -1.8530 C   0  0  0  0  0  0  0  0  0  0  0  0
   -1.0250   -2.1210   -0.9310 O   0  0  0  0  0  0  0  0  0  0  0  0
   -0.6150   -0.8530   -0.5570 C   0  0  0  0  0  0  0  0  0  0  0  0
   -1.1560    0.3160   -1.0440 C   0  0  0  0  0  0  0  0  0  0  0  0
   -0.7100    1.5700   -0.6390 C   0  0  0  0  0  0  0  0  0  0  0  0
    0.3110    1.6460    0.2850 C   0  0  0  0  0  0  0  0  0  0  0  0
    0.8670    0.4830    0.7850 C   0  0  0  0  0  0  0  0  0  0  0  0
    1.8860    0.5830    1.7060 O   0  0  0  0  0  0  0  0  0  0  0  0
    2.3720    1.8120    2.1480 C   0  0  0  0  0  0  0  0  0  0  0  0
    0.4040   -0.7580    0.3640 C   0  0  0  0  0  0  0  0  0  0  0  0
    1.0120   -1.8790    0.9110 O   0  0  0  0  0  0  0  0  0  0  0  0
  1  2  1  0
  2  3  1  0
  3  4  2  0
  3 10  1  0
  4  5  1  0
  5  6  2  0
  6  7  1  0
  7  8  1  0
  7 10  2  0
  8  9  1  0
 10 11  1  0
M  END
