
     RDKit          3D

 12 11  0  0  0  0  0  0  0  0999 V2000
    3.9680    0.0640   -0.4100 N   0  0  0  0  0  0  0  0  0  0  0  0
    2.7270    0.8120   -0.4510 C   0  0  0  0  0  0  0  0  0  0  0  0
    1.5530   -0.0800   -0.0230 C   0  0  0  0  0  0  0  0  0  0  0  0
    0.3800    0.7200   -0.0890 N   0  0  0  0  0  0  0  0  0  0  0  0
   -0.8660   -0.0450   -0.0610 C   0  0  2  0  0  0  0  0  0  0  0  0
   -0.6520   -1.4210    0.5330 C   0  0  0  0  0  0  0  0  0  0  0  0
   -0.1810   -1.3760    1.8350 O   0  0  0  0  0  0  0  0  0  0  0  0
   -1.2700   -0.2540   -1.4920 C   0  0  0  0  0  0  0  0  0  0  0  0
   -0.2420   -0.9610   -2.1200 O   0  0  0  0  0  0  0  0  0  0  0  0
   -1.8250    0.7040    0.7730 C   0  0  0  0  0  0  0  0  0  0  0  0
   -3.1780    0.1150    0.9490 C   0  0  0  0  0  0  0  0  0  0  0  0
   -3.9700    0.9330    1.7580 O   0  0  0  0  0  0  0  0  0  0  0  0
  1  2  1  0
  2  3  1  0
  3  4  1  0
  4  5  1  0
  5  6  1  1
  5  8  1  0
  5 10  1  0
  6  7  1  0
  8  9  1  0
 10 11  1  0
 11 12  1  0
M  CHG  2   1   1   4   1
M  END
