
     RDKit          3D

 13 12  0  0  0  0  0  0  0  0999 V2000
   -0.9140    2.4050   -1.1460 N   0  0  0  0  0  0  0  0  0  0  0  0
   -0.6010    1.0320   -1.4520 C   0  0  0  0  0  0  0  0  0  0  0  0
    0.0960    0.4180   -0.2220 C   0  0  2  0  0  0  0  0  0  0  0  0
    0.4650   -0.9970   -0.5120 C   0  0  1  0  0  0  0  0  0  0  0  0
    1.3680   -1.1080   -1.6500 N   0  0  0  0  0  0  0  0  0  0  0  0
    0.9800   -1.7210    0.6870 C   0  0  0  0  0  0  0  0  0  0  0  0
    2.1780   -1.1410    1.3130 C   0  0  0  0  0  0  0  0  0  0  0  0
    2.6160   -1.6480    2.3650 O   0  0  0  0  0  0  0  0  0  0  0  0
    2.8290   -0.0610    0.7750 O   0  0  0  0  0  0  0  0  0  0  0  0
   -0.7580    0.6460    0.9690 C   0  0  2  0  0  0  0  0  0  0  0  0
   -0.1160    0.1520    2.1420 O   0  0  0  0  0  0  0  0  0  0  0  0
   -2.0870   -0.0680    0.9790 C   0  0  0  0  0  0  0  0  0  0  0  0
   -2.9400    0.2010   -0.0450 O   0  0  0  0  0  0  0  0  0  0  0  0
  1  2  1  0
  3  2  1  6
  3  4  1  0
  3 10  1  0
  4  5  1  6
  4  6  1  0
  6  7  1  0
  7  8  2  0
  7  9  1  0
 10 11  1  1
 10 12  1  0
 12 13  1  0
M  CHG  2   1   1   5   1
M  END
