
     RDKit          3D

 13 12  0  0  0  0  0  0  0  0999 V2000
   -3.1500    0.2130   -0.7030 N   0  0  0  0  0  0  0  0  0  0  0  0
   -1.7560    0.5860   -0.7670 C   0  0  0  0  0  0  0  0  0  0  0  0
   -0.8770   -0.4020   -0.0040 C   0  0  2  0  0  0  0  0  0  0  0  0
   -1.1320   -1.6270   -0.6980 O   0  0  0  0  0  0  0  0  0  0  0  0
   -1.3820   -0.6450    1.3680 C   0  0  0  0  0  0  0  0  0  0  0  0
   -1.2220    0.3450    2.2790 O   0  0  0  0  0  0  0  0  0  0  0  0
    0.5790   -0.1390   -0.1750 C   0  0  2  0  0  0  0  0  0  0  0  0
    0.9700    1.2520    0.2860 C   0  0  0  0  0  0  0  0  0  0  0  0
    2.3760    1.5260    0.1280 N   0  0  0  0  0  0  0  0  0  0  0  0
    1.1100   -0.4570   -1.5390 C   0  0  0  0  0  0  0  0  0  0  0  0
    0.5610    0.2290   -2.5850 O   0  0  0  0  0  0  0  0  0  0  0  0
    1.3340   -1.1070    0.7560 C   0  0  0  0  0  0  0  0  0  0  0  0
    1.0590   -0.9580    2.0760 O   0  0  0  0  0  0  0  0  0  0  0  0
  1  2  1  0
  2  3  1  0
  3  4  1  6
  3  5  1  0
  3  7  1  0
  5  6  1  0
  7  8  1  1
  7 10  1  0
  7 12  1  0
  8  9  1  0
 10 11  1  0
 12 13  1  0
M  CHG  1   9   1
M  END
