
     RDKit          3D

 12 11  0  0  0  0  0  0  0  0999 V2000
    2.6090   -1.2090   -1.0970 N   0  0  0  0  0  0  0  0  0  0  0  0
    1.1420   -1.0480   -1.0670 C   0  0  0  0  0  0  0  0  0  0  0  0
    0.8260   -0.3430    0.2090 C   0  0  2  0  0  0  0  0  0  0  0  0
    1.2480   -1.0730    1.3670 N   0  0  0  0  0  0  0  0  0  0  0  0
   -0.5620    0.2250    0.3050 C   0  0  2  0  0  0  0  0  0  0  0  0
   -1.5950   -0.7070    0.8630 C   0  0  0  0  0  0  0  0  0  0  0  0
   -1.8320   -1.9710    0.1370 C   0  0  0  0  0  0  0  0  0  0  0  0
   -2.8650   -2.6440    0.8520 O   0  0  0  0  0  0  0  0  0  0  0  0
   -0.9390    0.8790   -0.8190 O   0  0  0  0  0  0  0  0  0  0  0  0
   -1.1540    2.2110   -0.8070 C   0  0  0  0  0  0  0  0  0  0  0  0
   -0.0450    3.1340   -0.4750 C   0  0  0  0  0  0  0  0  0  0  0  0
    0.5300    3.0030    0.7690 O   0  0  0  0  0  0  0  0  0  0  0  0
  1  2  1  0
  2  3  1  0
  3  4  1  1
  3  5  1  0
  5  6  1  6
  5  9  1  0
  6  7  1  0
  7  8  1  0
  9 10  1  0
 10 11  1  0
 11 12  1  0
M  CHG  2   1   1   4   1
M  END
