
     RDKit          3D

 22 24  0  0  0  0  0  0  0  0999 V2000
    5.5800    0.3260    2.3340 C   0  0  0  0  0  0  0  0  0  0  0  0
    4.6960   -0.5470    1.6690 O   0  0  0  0  0  0  0  0  0  0  0  0
    3.8370   -0.1640    0.6520 C   0  0  0  0  0  0  0  0  0  0  0  0
    3.8670    1.0520    0.3180 O   0  0  0  0  0  0  0  0  0  0  0  0
    2.9250   -1.1530   -0.0090 C   0  0  0  0  0  0  0  0  0  0  0  0
    2.1120   -0.4930   -1.0600 C   0  0  0  0  0  0  0  0  0  0  0  0
    2.7000   -0.1760   -2.2610 C   0  0  0  0  0  0  0  0  0  0  0  0
    4.1300   -0.4580   -2.5780 C   0  0  0  0  0  0  0  0  0  0  0  0
    1.9330    0.4230   -3.1990 N   0  0  0  0  0  0  0  0  0  0  0  0
    0.6340    0.7190   -3.0090 C   0  0  0  0  0  0  0  0  0  0  0  0
    0.0160    0.4150   -1.8200 C   0  0  0  0  0  0  0  0  0  0  0  0
   -1.2710    0.6000   -1.3640 C   0  0  0  0  0  0  0  0  0  0  0  0
   -1.2880    0.0870   -0.0840 C   0  0  0  0  0  0  0  0  0  0  0  0
   -2.4740    0.0570    0.8340 C   0  0  0  0  0  0  0  0  0  0  0  0
   -3.6540    0.6840    0.1200 C   0  0  0  0  0  0  0  0  0  0  0  0
   -4.8650    0.6920    0.9620 C   0  0  0  0  0  0  0  0  0  0  0  0
   -5.8610   -0.2660    1.0740 C   0  0  0  0  0  0  0  0  0  0  0  0
   -6.7880    0.1920    1.9920 C   0  0  0  0  0  0  0  0  0  0  0  0
   -6.3860    1.3640    2.4210 O   0  0  0  0  0  0  0  0  0  0  0  0
   -5.2430    1.6960    1.8300 C   0  0  0  0  0  0  0  0  0  0  0  0
   -0.0630   -0.3800    0.2020 N   0  0  0  0  0  0  0  0  0  0  0  0
    0.7760   -0.1960   -0.8470 C   0  0  0  0  0  0  0  0  0  0  0  0
  1  2  1  0
  2  3  1  0
  3  4  2  0
  3  5  1  0
  5  6  1  0
  6  7  2  0
  6 22  1  0
  7  8  1  0
  7  9  1  0
  9 10  2  0
 10 11  1  0
 11 12  1  0
 11 22  2  0
 12 13  2  0
 13 14  1  0
 13 21  1  0
 14 15  1  0
 15 16  1  0
 16 17  1  0
 16 20  2  0
 17 18  2  0
 18 19  1  0
 19 20  1  0
 21 22  1  0
M  END
