
     RDKit          3D

 22 24  0  0  0  0  0  0  0  0999 V2000
    7.5940    0.6840   -0.3360 C   0  0  0  0  0  0  0  0  0  0  0  0
    7.1350   -0.0370    0.9080 C   0  0  0  0  0  0  0  0  0  0  0  0
    5.7940    0.1920    1.2240 O   0  0  0  0  0  0  0  0  0  0  0  0
    4.8030   -0.1570    0.3280 C   0  0  0  0  0  0  0  0  0  0  0  0
    5.1280   -0.6760   -0.7610 O   0  0  0  0  0  0  0  0  0  0  0  0
    3.4140    0.0900    0.6770 C   0  0  0  0  0  0  0  0  0  0  0  0
    2.4820   -0.2480   -0.1880 C   0  0  0  0  0  0  0  0  0  0  0  0
    1.0720    0.0060    0.1720 C   0  0  0  0  0  0  0  0  0  0  0  0
    0.6330    0.5690    1.3360 C   0  0  0  0  0  0  0  0  0  0  0  0
   -0.6940    0.6250    1.2750 N   0  0  0  0  0  0  0  0  0  0  0  0
   -1.1690    0.1150    0.0990 C   0  0  0  0  0  0  0  0  0  0  0  0
   -2.5800    0.0130   -0.2540 C   0  0  0  0  0  0  0  0  0  0  0  0
   -3.0280   -0.3430   -1.4780 C   0  0  0  0  0  0  0  0  0  0  0  0
   -4.4110   -0.4420   -1.6830 C   0  0  0  0  0  0  0  0  0  0  0  0
   -5.3080   -0.1860   -0.6760 C   0  0  0  0  0  0  0  0  0  0  0  0
   -4.8670    0.1790    0.5790 C   0  0  0  0  0  0  0  0  0  0  0  0
   -3.5130    0.2700    0.7620 C   0  0  0  0  0  0  0  0  0  0  0  0
   -6.0820    0.3700    1.3910 C   0  0  0  0  0  0  0  0  0  0  0  0
   -6.9780   -0.5180    0.7790 O   0  0  0  0  0  0  0  0  0  0  0  0
   -6.7920   -0.2050   -0.5850 C   0  0  0  0  0  0  0  0  0  0  0  0
   -0.0610   -0.2700   -0.5830 C   0  0  0  0  0  0  0  0  0  0  0  0
    0.0390   -0.9150   -1.9150 C   0  0  0  0  0  0  0  0  0  0  0  0
  1  2  1  0
  2  3  1  0
  3  4  1  0
  4  5  2  0
  4  6  1  0
  6  7  2  3
  7  8  1  0
  8  9  2  0
  8 21  1  0
  9 10  1  0
 10 11  1  0
 11 12  1  0
 11 21  2  0
 12 13  2  0
 12 17  1  0
 13 14  1  0
 14 15  2  0
 15 16  1  0
 15 20  1  0
 16 17  2  0
 16 18  1  0
 18 19  1  0
 19 20  1  0
 21 22  1  0
M  END
