
     RDKit          3D

 22 24  0  0  0  0  0  0  0  0999 V2000
   -6.6960   -1.6840   -0.7210 C   0  0  0  0  0  0  0  0  0  0  0  0
   -5.3260   -1.2010   -0.3890 C   0  0  0  0  0  0  0  0  0  0  0  0
   -4.5600   -0.4930   -1.2920 C   0  0  0  0  0  0  0  0  0  0  0  0
   -3.2840   -0.0380   -0.9940 C   0  0  0  0  0  0  0  0  0  0  0  0
   -2.7310   -0.2880    0.2470 C   0  0  0  0  0  0  0  0  0  0  0  0
   -1.3890    0.1730    0.6010 C   0  0  0  0  0  0  0  0  0  0  0  0
   -0.9440   -0.0830    1.7360 O   0  0  0  0  0  0  0  0  0  0  0  0
   -0.5850    0.8820   -0.2620 O   0  0  0  0  0  0  0  0  0  0  0  0
    0.6870    1.3250    0.0610 C   0  0  0  0  0  0  0  0  0  0  0  0
    1.1540    1.0790    1.1960 O   0  0  0  0  0  0  0  0  0  0  0  0
    1.4820    2.0800   -0.9290 C   0  0  0  0  0  0  0  0  0  0  0  0
    2.7870    2.4410   -0.4220 N   0  0  0  0  0  0  0  0  0  0  0  0
    3.6950    1.3990   -0.0930 C   0  0  0  0  0  0  0  0  0  0  0  0
    4.9340    1.6840    0.4930 C   0  0  0  0  0  0  0  0  0  0  0  0
    5.8380    0.6990    0.8180 C   0  0  0  0  0  0  0  0  0  0  0  0
    5.5020   -0.6040    0.5520 C   0  0  0  0  0  0  0  0  0  0  0  0
    4.2800   -0.9430   -0.0320 C   0  0  0  0  0  0  0  0  0  0  0  0
    3.4000    0.0730   -0.3430 C   0  0  0  0  0  0  0  0  0  0  0  0
    4.6480   -2.3210    0.0150 N   0  0  0  0  0  0  0  0  0  0  0  0
    5.7930   -2.0230    0.5600 C   0  0  0  0  0  0  0  0  0  0  0  0
   -3.4930   -0.9950    1.1520 C   0  0  0  0  0  0  0  0  0  0  0  0
   -4.7620   -1.4440    0.8470 C   0  0  0  0  0  0  0  0  0  0  0  0
  1  2  1  0
  2  3  2  0
  2 22  1  0
  3  4  1  0
  4  5  2  0
  5  6  1  0
  5 21  1  0
  6  7  2  0
  6  8  1  0
  8  9  1  0
  9 10  2  0
  9 11  1  0
 11 12  1  0
 12 13  1  0
 13 14  2  0
 13 18  1  0
 14 15  1  0
 15 16  2  0
 16 17  1  0
 16 20  1  0
 17 18  2  0
 17 19  1  0
 19 20  2  0
 21 22  2  0
M  END
