
     RDKit          3D

 22 24  0  0  0  0  0  0  0  0999 V2000
   -6.8070    1.2500   -0.7970 C   0  0  0  0  0  0  0  0  0  0  0  0
   -5.3790    0.8920   -0.4990 C   0  0  0  0  0  0  0  0  0  0  0  0
   -4.4960    1.9550   -0.4300 C   0  0  0  0  0  0  0  0  0  0  0  0
   -3.1760    1.6600   -0.1570 C   0  0  0  0  0  0  0  0  0  0  0  0
   -2.8110    0.3360    0.0300 C   0  0  0  0  0  0  0  0  0  0  0  0
   -3.7280   -0.6900   -0.0490 C   0  0  0  0  0  0  0  0  0  0  0  0
   -5.0000   -0.3880   -0.3130 N   0  0  0  0  0  0  0  0  0  0  0  0
   -3.2100   -2.0600    0.1710 C   0  0  0  0  0  0  0  0  0  0  0  0
   -2.2730   -2.1280    1.1770 O   0  0  0  0  0  0  0  0  0  0  0  0
   -1.2130   -1.2910    1.0650 C   0  0  0  0  0  0  0  0  0  0  0  0
   -1.4360   -0.0520    0.3220 C   0  0  0  0  0  0  0  0  0  0  0  0
   -0.4880    0.7240   -0.0900 N   0  0  0  0  0  0  0  0  0  0  0  0
    0.8840    0.4940    0.1080 C   0  0  0  0  0  0  0  0  0  0  0  0
    1.2590   -0.1480    1.1230 O   0  0  0  0  0  0  0  0  0  0  0  0
    1.9250    0.9830   -0.8380 C   0  0  0  0  0  0  0  0  0  0  0  0
    3.2740    0.5950   -0.3840 C   0  0  0  0  0  0  0  0  0  0  0  0
    4.0840   -0.1640   -1.1140 C   0  0  0  0  0  0  0  0  0  0  0  0
    5.4090   -0.5380   -0.6530 C   0  0  0  0  0  0  0  0  0  0  0  0
    6.0050   -0.1840    0.5450 C   0  0  0  0  0  0  0  0  0  0  0  0
    7.2480   -0.7730    0.5250 C   0  0  0  0  0  0  0  0  0  0  0  0
    7.3550   -1.4530   -0.6730 C   0  0  0  0  0  0  0  0  0  0  0  0
    6.2440   -1.2760   -1.3170 O   0  0  0  0  0  0  0  0  0  0  0  0
  1  2  1  0
  2  3  2  0
  2  7  1  0
  3  4  1  0
  4  5  2  0
  5  6  1  0
  5 11  1  0
  6  7  2  0
  6  8  1  0
  8  9  1  0
  9 10  1  0
 10 11  1  0
 11 12  2  3
 12 13  1  0
 13 14  2  0
 13 15  1  0
 15 16  1  0
 16 17  2  3
 17 18  1  0
 18 19  2  0
 18 22  1  0
 19 20  1  0
 20 21  2  0
 21 22  1  0
M  END
