
     RDKit          3D

 22 24  0  0  0  0  0  0  0  0999 V2000
   -6.4470   -0.5100   -0.9230 C   0  0  0  0  0  0  0  0  0  0  0  0
   -5.3550   -0.2540   -0.2320 C   0  0  0  0  0  0  0  0  0  0  0  0
   -4.9540    1.1530   -0.0480 C   0  0  0  0  0  0  0  0  0  0  0  0
   -3.4530    1.1760    0.0840 C   0  0  0  0  0  0  0  0  0  0  0  0
   -2.4890    2.0470   -0.3870 C   0  0  0  0  0  0  0  0  0  0  0  0
   -1.2700    1.5730    0.0450 C   0  0  0  0  0  0  0  0  0  0  0  0
   -1.4650    0.4540    0.7570 N   0  0  0  0  0  0  0  0  0  0  0  0
   -2.7880    0.2020    0.7880 C   0  0  0  0  0  0  0  0  0  0  0  0
   -3.5820   -0.9110    1.4290 C   0  0  0  0  0  0  0  0  0  0  0  0
   -4.5500   -1.3220    0.3470 C   0  0  0  0  0  0  0  0  0  0  0  0
   -4.6390   -2.5680   -0.0340 C   0  0  0  0  0  0  0  0  0  0  0  0
   -0.2060   -0.0550    1.2160 C   0  0  0  0  0  0  0  0  0  0  0  0
   -0.0150   -1.0820    1.9070 O   0  0  0  0  0  0  0  0  0  0  0  0
    0.8210    0.8070    0.7570 N   0  0  0  0  0  0  0  0  0  0  0  0
    2.2610    0.6620    0.9980 C   0  0  0  0  0  0  0  0  0  0  0  0
    2.9120   -0.1660   -0.0980 C   0  0  0  0  0  0  0  0  0  0  0  0
    4.3850   -0.2520    0.2460 C   0  0  0  0  0  0  0  0  0  0  0  0
    5.0900   -0.9930   -0.6970 O   0  0  0  0  0  0  0  0  0  0  0  0
    6.4220   -1.0490   -0.3500 C   0  0  0  0  0  0  0  0  0  0  0  0
    7.0790    0.3010   -0.2670 C   0  0  0  0  0  0  0  0  0  0  0  0
    0.1710    1.8360    0.0200 C   0  0  0  0  0  0  0  0  0  0  0  0
    0.7640    2.7870   -0.5410 O   0  0  0  0  0  0  0  0  0  0  0  0
  1  2  2  0
  2  3  1  0
  2 10  1  0
  3  4  1  0
  4  5  1  0
  4  8  2  0
  5  6  2  0
  6  7  1  0
  6 21  1  0
  7  8  1  0
  7 12  1  0
  8  9  1  0
  9 10  1  0
 10 11  2  0
 12 13  2  0
 12 14  1  0
 14 15  1  0
 14 21  1  0
 15 16  1  0
 16 17  1  0
 17 18  1  0
 18 19  1  0
 19 20  1  0
 21 22  2  0
M  END
