
     RDKit          3D

 22 24  0  0  0  0  0  0  0  0999 V2000
   -8.4970   -0.4330   -0.1890 C   0  0  0  0  0  0  0  0  0  0  0  0
   -7.5980    0.2490    0.4680 C   0  0  0  0  0  0  0  0  0  0  0  0
   -6.2600   -0.3210    0.7220 C   0  0  0  0  0  0  0  0  0  0  0  0
   -5.2480    0.6050    0.0690 C   0  0  0  0  0  0  0  0  0  0  0  0
   -3.9260    0.1190    0.2720 O   0  0  0  0  0  0  0  0  0  0  0  0
   -2.8480    0.8170   -0.2440 C   0  0  0  0  0  0  0  0  0  0  0  0
   -3.1060    1.8710   -0.8800 O   0  0  0  0  0  0  0  0  0  0  0  0
   -1.4680    0.3720   -0.0700 C   0  0  0  0  0  0  0  0  0  0  0  0
   -0.3640    1.0170   -0.5550 C   0  0  0  0  0  0  0  0  0  0  0  0
    0.7150    0.2380   -0.1510 C   0  0  0  0  0  0  0  0  0  0  0  0
    2.0820    0.3950   -0.3510 C   0  0  0  0  0  0  0  0  0  0  0  0
    2.9880   -0.4940    0.1330 C   0  0  0  0  0  0  0  0  0  0  0  0
    4.3960   -0.3350   -0.0870 N   0  0  0  0  0  0  0  0  0  0  0  0
    5.3690   -1.0370    0.6690 C   0  0  0  0  0  0  0  0  0  0  0  0
    6.6580   -0.9170    0.4770 C   0  0  0  0  0  0  0  0  0  0  0  0
    7.1730   -0.0220   -0.5620 C   0  0  0  0  0  0  0  0  0  0  0  0
    6.1450    0.6860   -1.3220 C   0  0  0  0  0  0  0  0  0  0  0  0
    4.8510    0.5390   -1.0990 C   0  0  0  0  0  0  0  0  0  0  0  0
    2.4900   -1.5660    0.8380 C   0  0  0  0  0  0  0  0  0  0  0  0
    1.1180   -1.7490    1.0550 C   0  0  0  0  0  0  0  0  0  0  0  0
    0.2280   -0.8310    0.5510 C   0  0  0  0  0  0  0  0  0  0  0  0
   -1.0840   -0.7040    0.5700 O   0  0  0  0  0  0  0  0  0  0  0  0
  1  2  2  0
  2  3  1  0
  3  4  1  0
  4  5  1  0
  5  6  1  0
  6  7  2  0
  6  8  1  0
  8  9  2  0
  8 22  1  0
  9 10  1  0
 10 11  2  0
 10 21  1  0
 11 12  1  0
 12 13  1  0
 12 19  2  0
 13 14  1  0
 13 18  1  0
 14 15  2  0
 15 16  1  0
 16 17  1  0
 17 18  2  0
 19 20  1  0
 20 21  2  0
 21 22  1  0
M  END
