
     RDKit          3D

 21 23  0  0  0  0  0  0  0  0999 V2000
   -6.6590    0.5180   -0.3930 C   0  0  0  0  0  0  0  0  0  0  0  0
   -5.9560    0.8200    0.7950 O   0  0  0  0  0  0  0  0  0  0  0  0
   -4.6400    0.3770    1.0100 C   0  0  0  0  0  0  0  0  0  0  0  0
   -4.3530   -0.1660    2.1820 C   0  0  0  0  0  0  0  0  0  0  0  0
   -3.0480   -0.6980    2.6260 C   0  0  0  0  0  0  0  0  0  0  0  0
   -1.9840   -0.9360    1.8790 C   0  0  0  0  0  0  0  0  0  0  0  0
   -1.8790   -0.7290    0.5000 O   0  0  0  0  0  0  0  0  0  0  0  0
   -2.5330    0.1040   -0.3700 C   0  0  0  0  0  0  0  0  0  0  0  0
   -1.9290    0.5360   -1.6520 C   0  0  0  0  0  0  0  0  0  0  0  0
   -0.7550    1.2290   -1.5970 O   0  0  0  0  0  0  0  0  0  0  0  0
    0.5070    1.0260   -1.2190 C   0  0  0  0  0  0  0  0  0  0  0  0
    1.4070    2.1140   -1.3240 C   0  0  0  0  0  0  0  0  0  0  0  0
    2.7330    1.9880   -0.9570 C   0  0  0  0  0  0  0  0  0  0  0  0
    3.1940    0.7880   -0.4820 C   0  0  0  0  0  0  0  0  0  0  0  0
    4.5380    0.6440   -0.1050 N   0  0  0  0  0  0  0  0  0  0  0  0
    5.0260   -0.6400    0.4060 C   0  0  2  0  0  0  0  0  0  0  0  0
    6.4640   -0.7350    0.7890 C   0  0  0  0  0  0  0  0  0  0  0  0
    5.8910   -1.5010   -0.4020 C   0  0  0  0  0  0  0  0  0  0  0  0
    2.3280   -0.2640   -0.3800 C   0  0  0  0  0  0  0  0  0  0  0  0
    0.9820   -0.1620   -0.7460 C   0  0  0  0  0  0  0  0  0  0  0  0
   -3.7660    0.5930   -0.1320 C   0  0  0  0  0  0  0  0  0  0  0  0
  1  2  1  0
  2  3  1  0
  3  4  2  0
  3 21  1  0
  4  5  1  0
  5  6  2  0
  6  7  1  0
  7  8  1  0
  8  9  1  0
  8 21  2  0
  9 10  1  0
 10 11  1  0
 11 12  2  0
 11 20  1  0
 12 13  1  0
 13 14  2  0
 14 15  1  0
 14 19  1  0
 16 15  1  6
 16 17  1  0
 16 18  1  0
 17 18  1  0
 19 20  2  0
M  END
