
     RDKit          3D

 23 25  0  0  0  0  0  0  0  0999 V2000
   -2.5470   -4.1730   -0.8630 C   0  0  0  0  0  0  0  0  0  0  0  0
   -1.7930   -2.9370   -0.6950 N   0  0  0  0  0  0  0  0  0  0  0  0
   -2.4360   -1.7340   -0.3580 C   0  0  0  0  0  0  0  0  0  0  0  0
   -3.6870   -1.8160   -0.2170 O   0  0  0  0  0  0  0  0  0  0  0  0
   -1.7120   -0.4290   -0.1730 C   0  0  0  0  0  0  0  0  0  0  0  0
   -0.3650   -0.4020   -0.3440 C   0  0  0  0  0  0  0  0  0  0  0  0
    0.5920   -1.3350   -0.6610 N   0  0  0  0  0  0  0  0  0  0  0  0
    1.7170   -1.6430   -0.2580 C   0  0  0  0  0  0  0  0  0  0  0  0
    2.4370   -1.0360    0.7880 N   0  0  0  0  0  0  0  0  0  0  0  0
    2.5080    0.3340    0.8460 N   0  0  0  0  0  0  0  0  0  0  0  0
    3.4310    1.1040    0.4830 C   0  0  0  0  0  0  0  0  0  0  0  0
    4.6840    0.6670   -0.1050 C   0  0  0  0  0  0  0  0  0  0  0  0
    5.0970   -0.6180   -0.3540 C   0  0  0  0  0  0  0  0  0  0  0  0
    6.3500   -0.5550   -0.9210 C   0  0  0  0  0  0  0  0  0  0  0  0
    6.6650    0.7660   -1.0010 C   0  0  0  0  0  0  0  0  0  0  0  0
    5.6710    1.4510   -0.5170 O   0  0  0  0  0  0  0  0  0  0  0  0
    0.0120    1.3710   -0.0290 S   0  0  0  0  0  0  0  0  0  0  0  0
   -1.6200    1.8510    0.2830 C   0  0  0  0  0  0  0  0  0  0  0  0
   -2.3500    0.7240    0.1470 C   0  0  0  0  0  0  0  0  0  0  0  0
   -3.8400    0.9960    0.3950 C   0  0  0  0  0  0  0  0  0  0  0  0
   -3.8790    1.7240    1.7240 C   0  0  0  0  0  0  0  0  0  0  0  0
   -3.3140    3.0890    1.5320 C   0  0  0  0  0  0  0  0  0  0  0  0
   -2.1510    3.1840    0.6200 C   0  0  0  0  0  0  0  0  0  0  0  0
  1  2  1  0
  2  3  1  0
  3  4  2  0
  3  5  1  0
  5  6  2  0
  5 19  1  0
  6  7  1  0
  6 17  1  0
  7  8  2  3
  8  9  1  0
  9 10  1  0
 10 11  2  3
 11 12  1  0
 12 13  2  0
 12 16  1  0
 13 14  1  0
 14 15  2  0
 15 16  1  0
 17 18  1  0
 18 19  2  0
 18 23  1  0
 19 20  1  0
 20 21  1  0
 21 22  1  0
 22 23  1  0
M  END
