
     RDKit          3D

 23 25  0  0  0  0  0  0  0  0999 V2000
    5.4550    0.8350   -0.1740 C   0  0  0  0  0  0  0  0  0  0  0  0
    4.2200    1.6900    0.0870 C   0  0  0  0  0  0  0  0  0  0  0  0
    3.0460    0.8220    0.2570 C   0  0  0  0  0  0  0  0  0  0  0  0
    2.4820    0.4970    1.4020 N   0  0  0  0  0  0  0  0  0  0  0  0
    1.4210   -0.3330    1.1590 C   0  0  0  0  0  0  0  0  0  0  0  0
    0.5760   -0.8710    2.2090 C   0  0  0  0  0  0  0  0  0  0  0  0
    0.7990   -0.5650    3.4290 O   0  0  0  0  0  0  0  0  0  0  0  0
   -0.4990   -1.7300    1.9460 N   0  0  0  0  0  0  0  0  0  0  0  0
   -1.3290   -2.2260    3.0640 C   0  0  0  0  0  0  0  0  0  0  0  0
   -0.8980   -2.2250    0.6480 C   0  0  0  0  0  0  0  0  0  0  0  0
   -1.8650   -1.2650    0.0630 C   0  0  0  0  0  0  0  0  0  0  0  0
   -2.4800   -1.5150   -1.1370 C   0  0  0  0  0  0  0  0  0  0  0  0
   -3.3770   -0.7510   -1.7970 C   0  0  0  0  0  0  0  0  0  0  0  0
   -3.8820    0.4700   -1.4050 C   0  0  0  0  0  0  0  0  0  0  0  0
   -4.7710    1.3170   -1.9680 N   0  0  0  0  0  0  0  0  0  0  0  0
   -4.9670    2.4090   -1.2170 C   0  0  0  0  0  0  0  0  0  0  0  0
   -5.6980    3.3940   -1.4000 O   0  0  0  0  0  0  0  0  0  0  0  0
   -4.1660    2.3000   -0.0770 C   0  0  0  0  0  0  0  0  0  0  0  0
   -3.4710    1.0950   -0.1600 C   0  0  0  0  0  0  0  0  0  0  0  0
   -2.3360    0.2250    0.7690 S   0  0  0  0  0  0  0  0  0  0  0  0
    1.3760   -0.4870   -0.1730 N   0  0  0  0  0  0  0  0  0  0  0  0
    2.3620    0.2120   -0.7470 C   0  0  0  0  0  0  0  0  0  0  0  0
    2.6560    0.3130   -2.2050 C   0  0  0  0  0  0  0  0  0  0  0  0
  1  2  1  0
  2  3  1  0
  3  4  1  0
  3 22  2  0
  4  5  1  0
  5  6  1  0
  5 21  2  0
  6  7  2  0
  6  8  1  0
  8  9  1  0
  8 10  1  0
 10 11  1  0
 11 12  2  0
 11 20  1  0
 12 13  1  0
 13 14  2  0
 14 15  1  0
 14 19  1  0
 15 16  1  0
 16 17  2  0
 16 18  1  0
 18 19  2  0
 19 20  1  0
 21 22  1  0
 22 23  1  0
M  END
