
     RDKit          3D

 25 28  0  0  0  0  0  0  0  0999 V2000
    5.2280   -1.0690   -1.1280 C   0  0  0  0  0  0  0  0  0  0  0  0
    4.9880   -2.0370   -0.0700 N   0  0  0  0  0  0  0  0  0  0  0  0
    4.2920   -1.5050    1.0630 C   0  0  0  0  0  0  0  0  0  0  0  0
    2.8510   -1.2450    0.8540 C   0  0  0  0  0  0  0  0  0  0  0  0
    2.3540   -0.0250    0.9400 C   0  0  0  0  0  0  0  0  0  0  0  0
    0.9260    0.2420    0.7440 C   0  0  0  0  0  0  0  0  0  0  0  0
    0.0390   -0.7460    0.5350 N   0  0  0  0  0  0  0  0  0  0  0  0
   -1.2090   -0.2090    0.3780 C   0  0  0  0  0  0  0  0  0  0  0  0
   -2.4550   -0.9870    0.2000 C   0  0  2  0  0  0  0  0  0  0  0  0
   -2.2070   -2.4540    0.5090 C   0  0  0  0  0  0  0  0  0  0  0  0
   -3.5070   -3.0560    0.0090 C   0  0  0  0  0  0  0  0  0  0  0  0
   -4.0930   -2.0310   -0.9320 C   0  0  0  0  0  0  0  0  0  0  0  0
   -3.0970   -0.9410   -1.0550 N   0  0  1  0  0  0  0  0  0  0  0  0
   -3.7840    0.3360   -1.0790 C   0  0  0  0  0  0  0  0  0  0  0  0
   -4.0520    0.7270    0.3300 C   0  0  0  0  0  0  0  0  0  0  0  0
   -3.5240   -0.4540    1.1480 C   0  0  0  0  0  0  0  0  0  0  0  0
   -1.0350    1.0940    0.4930 N   0  0  0  0  0  0  0  0  0  0  0  0
    0.2650    1.4410    0.7220 C   0  0  0  0  0  0  0  0  0  0  0  0
    0.8020    2.7970    0.9420 C   0  0  0  0  0  0  0  0  0  0  0  0
    1.5980    3.3030   -0.1380 C   0  0  0  0  0  0  0  0  0  0  0  0
    2.9560    3.4440   -0.1030 N   0  0  0  0  0  0  0  0  0  0  0  0
    3.3720    3.9830   -1.2400 N   0  0  0  0  0  0  0  0  0  0  0  0
    2.3340    4.2170   -2.0640 C   0  0  0  0  0  0  0  0  0  0  0  0
    1.2020    3.7800   -1.3570 C   0  0  0  0  0  0  0  0  0  0  0  0
   -0.0500    3.8280   -1.8330 F   0  0  0  0  0  0  0  0  0  0  0  0
  1  2  1  0
  2  3  1  0
  3  4  1  0
  4  5  2  3
  5  6  1  0
  6  7  1  0
  6 18  2  0
  7  8  1  0
  9  8  1  6
  8 17  2  0
  9 10  1  0
  9 13  1  0
  9 16  1  0
 10 11  1  0
 11 12  1  0
 13 12  1  1
 13 14  1  0
 14 15  1  0
 15 16  1  0
 17 18  1  0
 18 19  1  0
 19 20  1  0
 20 21  1  0
 20 24  2  0
 21 22  1  0
 22 23  2  0
 23 24  1  0
 24 25  1  0
M  CHG  1  13   1
M  END
