
     RDKit          3D

 23 25  0  0  0  0  0  0  0  0999 V2000
   -4.2190    1.6330    0.1990 C   0  0  0  0  0  0  0  0  0  0  0  0
   -4.0980    0.8260   -0.8260 C   0  0  0  0  0  0  0  0  0  0  0  0
   -4.5850   -0.5470   -0.7460 C   0  0  0  0  0  0  0  0  0  0  0  0
   -3.5570   -1.5980   -0.9370 C   0  0  0  0  0  0  0  0  0  0  0  0
   -2.4640   -1.5180    0.1170 C   0  0  0  0  0  0  0  0  0  0  0  0
   -2.7590   -2.0300    1.3920 C   0  0  0  0  0  0  0  0  0  0  0  0
   -3.9820   -2.6470    1.8770 C   0  0  0  0  0  0  0  0  0  0  0  0
   -1.2580   -1.7390    2.2760 S   0  0  0  0  0  0  0  0  0  0  0  0
   -0.3670   -0.9980    0.9930 C   0  0  0  0  0  0  0  0  0  0  0  0
    0.9040   -0.4890    0.9210 N   0  0  0  0  0  0  0  0  0  0  0  0
    1.3590    0.0480   -0.2210 C   0  0  0  0  0  0  0  0  0  0  0  0
    2.6720    0.5890   -0.3370 N   0  0  0  0  0  0  0  0  0  0  0  0
    3.5930    0.6040    0.7340 C   0  0  0  0  0  0  0  0  0  0  0  0
    3.2450    0.1150    1.8340 O   0  0  0  0  0  0  0  0  0  0  0  0
    4.9430    1.1740    0.5970 C   0  0  0  0  0  0  0  0  0  0  0  0
    5.3870    1.7100   -0.5230 C   0  0  0  0  0  0  0  0  0  0  0  0
    6.7720    2.1660   -0.2630 C   0  0  0  0  0  0  0  0  0  0  0  0
    7.0080    1.8010    1.1480 C   0  0  0  0  0  0  0  0  0  0  0  0
    5.9490    1.2470    1.5830 N   0  0  0  0  0  0  0  0  0  0  0  0
    0.5450    0.0690   -1.2710 N   0  0  0  0  0  0  0  0  0  0  0  0
   -0.6940   -0.4160   -1.2340 C   0  0  0  0  0  0  0  0  0  0  0  0
   -1.3500   -0.3260   -2.3100 O   0  0  0  0  0  0  0  0  0  0  0  0
   -1.2380   -0.9940   -0.0700 C   0  0  0  0  0  0  0  0  0  0  0  0
  1  2  2  0
  2  3  1  0
  3  4  1  0
  4  5  1  0
  5  6  2  0
  5 23  1  0
  6  7  1  0
  6  8  1  0
  8  9  1  0
  9 10  1  0
  9 23  2  0
 10 11  2  0
 11 12  1  0
 11 20  1  0
 12 13  1  0
 13 14  2  0
 13 15  1  0
 15 16  2  0
 15 19  1  0
 16 17  1  0
 17 18  1  0
 18 19  2  0
 20 21  1  0
 21 22  2  0
 21 23  1  0
M  END
