
     RDKit          3D

 23 25  0  0  0  0  0  0  0  0999 V2000
   -4.7700    1.8140    0.0230 C   0  0  0  0  0  0  0  0  0  0  0  0
   -4.8270    0.3160    0.1560 C   0  0  0  0  0  0  0  0  0  0  0  0
   -3.7270   -0.4140    0.1350 C   0  0  0  0  0  0  0  0  0  0  0  0
   -2.4110    0.1910   -0.0160 C   0  0  0  0  0  0  0  0  0  0  0  0
   -1.3290   -0.5260   -0.0350 C   0  0  0  0  0  0  0  0  0  0  0  0
    0.0500    0.0020   -0.1850 C   0  0  0  0  0  0  0  0  0  0  0  0
    1.0740   -0.8710   -0.1870 N   0  0  0  0  0  0  0  0  0  0  0  0
    2.3670   -0.5890   -0.3090 C   0  0  0  0  0  0  0  0  0  0  0  0
    3.3980   -1.5590   -0.3020 N   0  0  0  0  0  0  0  0  0  0  0  0
    3.2020   -2.9780   -0.1620 C   0  0  0  0  0  0  0  0  0  0  0  0
    4.5480   -3.5590    0.2140 C   0  0  0  0  0  0  0  0  0  0  0  0
    5.5540   -2.5190   -0.1410 C   0  0  0  0  0  0  0  0  0  0  0  0
    4.8110   -1.2680   -0.4350 C   0  0  0  0  0  0  0  0  0  0  0  0
    2.6540    0.7420   -0.4450 N   0  0  0  0  0  0  0  0  0  0  0  0
    1.7100    1.6590   -0.4520 C   0  0  0  0  0  0  0  0  0  0  0  0
    1.6800    3.4580   -0.6050 S   0  0  0  0  0  0  0  0  0  0  0  0
   -0.2180    3.5320   -0.4680 C   0  0  0  0  0  0  0  0  0  0  0  0
   -0.7120    4.9540   -0.5530 C   0  0  0  0  0  0  0  0  0  0  0  0
   -2.0740    4.8810   -0.4440 O   0  0  0  0  0  0  0  0  0  0  0  0
   -0.4230    2.4240   -0.3570 N   0  0  0  0  0  0  0  0  0  0  0  0
    0.3150    1.3480   -0.3200 C   0  0  0  0  0  0  0  0  0  0  0  0
   -3.8870   -1.9000    0.2750 C   0  0  0  0  0  0  0  0  0  0  0  0
   -5.2260   -2.2440    0.4050 O   0  0  0  0  0  0  0  0  0  0  0  0
  1  2  1  0
  2  3  2  3
  3  4  1  0
  3 22  1  0
  4  5  2  3
  5  6  1  0
  6  7  2  0
  6 21  1  0
  7  8  1  0
  8  9  1  0
  8 14  2  0
  9 10  1  0
  9 13  1  0
 10 11  1  0
 11 12  1  0
 12 13  1  0
 14 15  1  0
 15 16  1  0
 15 21  2  0
 16 17  1  0
 17 18  1  0
 17 20  2  0
 18 19  1  0
 20 21  1  0
 22 23  1  0
M  END
