
     RDKit          3D

 23 25  0  0  0  0  0  0  0  0999 V2000
    0.3190    3.0930    1.2980 C   0  0  0  0  0  0  0  0  0  0  0  0
   -0.6990    2.1830    0.6570 C   0  0  0  0  0  0  0  0  0  0  0  0
   -0.3380    1.1040    0.0430 C   0  0  0  0  0  0  0  0  0  0  0  0
    1.0110    0.8750    0.0330 N   0  0  0  0  0  0  0  0  0  0  0  0
    1.5710   -0.1770   -0.5460 C   0  0  0  0  0  0  0  0  0  0  0  0
    2.9800   -0.3560   -0.5220 N   0  0  0  0  0  0  0  0  0  0  0  0
    3.8200    0.6060    0.1350 C   0  0  0  0  0  0  0  0  0  0  0  0
    5.2590    0.1680    0.0060 C   0  0  2  0  0  0  0  0  0  0  0  0
    5.6220   -1.1920    0.6090 C   0  0  0  0  0  0  0  0  0  0  0  0
    6.0540    0.0790    1.2930 C   0  0  0  0  0  0  0  0  0  0  0  0
    0.7730   -1.0490   -1.1450 N   0  0  0  0  0  0  0  0  0  0  0  0
   -0.5850   -0.8640   -1.1600 C   0  0  0  0  0  0  0  0  0  0  0  0
   -1.3470   -1.9000   -1.8540 C   0  0  0  0  0  0  0  0  0  0  0  0
   -1.1970    0.2170   -0.5690 C   0  0  0  0  0  0  0  0  0  0  0  0
   -2.4710    0.4240   -0.5620 C   0  0  0  0  0  0  0  0  0  0  0  0
   -3.5920   -0.2970   -1.0990 C   0  0  0  0  0  0  0  0  0  0  0  0
   -4.2250   -1.3970   -0.5670 C   0  0  0  0  0  0  0  0  0  0  0  0
   -3.8200   -2.2840    0.9500 S   0  0  0  0  0  0  0  0  0  0  0  0
   -4.7260   -1.5390    2.3310 C   0  0  0  0  0  0  0  0  0  0  0  0
   -5.2340   -1.6750   -1.4130 N   0  0  0  0  0  0  0  0  0  0  0  0
   -5.2320   -0.8200   -2.3920 O   0  0  0  0  0  0  0  0  0  0  0  0
   -4.2700    0.0460   -2.2750 C   0  0  0  0  0  0  0  0  0  0  0  0
   -4.0040    1.0760   -3.1470 O   0  0  0  0  0  0  0  0  0  0  0  0
  1  2  1  0
  2  3  2  3
  3  4  1  0
  3 14  1  0
  4  5  2  0
  5  6  1  0
  5 11  1  0
  6  7  1  0
  8  7  1  1
  8  9  1  0
  8 10  1  0
  9 10  1  0
 11 12  2  0
 12 13  1  0
 12 14  1  0
 14 15  2  3
 15 16  1  0
 16 17  1  0
 16 22  2  0
 17 18  1  0
 17 20  2  0
 18 19  1  0
 20 21  1  0
 21 22  1  0
 22 23  1  0
M  END
