
     RDKit          3D

 23 25  0  0  0  0  0  0  0  0999 V2000
    6.7730   -2.0140    1.7310 C   0  0  0  0  0  0  0  0  0  0  0  0
    5.6870   -0.9930    1.4050 C   0  0  0  0  0  0  0  0  0  0  0  0
    4.6050   -0.8670    1.0390 N   0  0  0  0  0  0  0  0  0  0  0  0
    3.8730    0.1880    0.8320 C   0  0  0  0  0  0  0  0  0  0  0  0
    2.4340    0.2070    0.3370 C   0  0  0  0  0  0  0  0  0  0  0  0
    2.4500    0.2970   -1.0480 O   0  0  0  0  0  0  0  0  0  0  0  0
    1.3260    0.3440   -1.8490 C   0  0  0  0  0  0  0  0  0  0  0  0
    1.3430    0.4440   -3.2030 C   0  0  0  0  0  0  0  0  0  0  0  0
    0.1660    0.4810   -3.9210 C   0  0  0  0  0  0  0  0  0  0  0  0
   -1.0340    0.4090   -3.2010 C   0  0  0  0  0  0  0  0  0  0  0  0
   -1.0320    0.3080   -1.8320 C   0  0  0  0  0  0  0  0  0  0  0  0
   -2.3180    0.2310   -1.1750 N   0  0  0  0  0  0  0  0  0  0  0  0
   -2.2980    0.1180    0.2370 C   0  0  0  0  0  0  0  0  0  0  0  0
   -1.1360    0.0970    0.7950 O   0  0  0  0  0  0  0  0  0  0  0  0
   -3.4640    0.0250    1.0720 C   0  0  0  0  0  0  0  0  0  0  0  0
   -3.3870   -0.0760    2.4280 N   0  0  0  0  0  0  0  0  0  0  0  0
   -4.6080   -0.1480    2.9320 C   0  0  0  0  0  0  0  0  0  0  0  0
   -5.5030   -0.0950    1.9080 C   0  0  0  0  0  0  0  0  0  0  0  0
   -4.7800    0.0150    0.7180 C   0  0  0  0  0  0  0  0  0  0  0  0
   -5.4080    0.1020   -0.6300 C   0  0  0  0  0  0  0  0  0  0  0  0
    0.1300    0.2780   -1.1950 N   0  0  0  0  0  0  0  0  0  0  0  0
    4.5690    1.4090    1.1220 C   0  0  0  0  0  0  0  0  0  0  0  0
    6.1480    0.8300    1.6390 S   0  0  0  0  0  0  0  0  0  0  0  0
  1  2  1  0
  2  3  2  0
  2 23  1  0
  3  4  1  0
  4  5  1  0
  4 22  2  0
  5  6  1  0
  6  7  1  0
  7  8  2  0
  7 21  1  0
  8  9  1  0
  9 10  2  0
 10 11  1  0
 11 12  1  0
 11 21  2  0
 12 13  1  0
 13 14  2  0
 13 15  1  0
 15 16  1  0
 15 19  2  0
 16 17  1  0
 17 18  2  0
 18 19  1  0
 19 20  1  0
 22 23  1  0
M  END
