
     RDKit          3D

 23 25  0  0  0  0  0  0  0  0999 V2000
    6.7060    0.7080    0.1810 O   0  0  0  0  0  0  0  0  0  0  0  0
    5.4640    0.7450    0.0550 C   0  0  0  0  0  0  0  0  0  0  0  0
    4.8580    2.0120   -0.0790 N   0  0  0  0  0  0  0  0  0  0  0  0
    5.6420    3.1380   -0.0660 O   0  0  0  0  0  0  0  0  0  0  0  0
    4.7010   -0.5040    0.0520 C   0  0  0  0  0  0  0  0  0  0  0  0
    5.3620   -1.7090    0.1870 C   0  0  0  0  0  0  0  0  0  0  0  0
    4.7100   -2.9240    0.1930 C   0  0  0  0  0  0  0  0  0  0  0  0
    3.3590   -2.9210    0.0580 C   0  0  0  0  0  0  0  0  0  0  0  0
    2.6370   -1.7560   -0.0810 C   0  0  0  0  0  0  0  0  0  0  0  0
    1.1870   -1.7840   -0.2240 C   0  0  0  0  0  0  0  0  0  0  0  0
    0.3350   -0.7310   -0.3700 C   0  0  0  0  0  0  0  0  0  0  0  0
   -0.9080   -1.2670   -0.4630 N   0  0  0  0  0  0  0  0  0  0  0  0
   -2.1610   -0.5540   -0.6290 C   0  0  0  0  0  0  0  0  0  0  0  0
   -2.8830   -0.1400    1.0000 S   0  0  0  0  0  0  0  0  0  0  0  0
   -4.4150    0.7320    0.6990 C   0  0  0  0  0  0  0  0  0  0  0  0
   -5.6290    0.0890    0.5750 C   0  0  0  0  0  0  0  0  0  0  0  0
   -6.7980    0.7910    0.3430 C   0  0  0  0  0  0  0  0  0  0  0  0
   -6.7930    2.1670    0.2260 C   0  0  0  0  0  0  0  0  0  0  0  0
   -5.5780    2.8070    0.3500 C   0  0  0  0  0  0  0  0  0  0  0  0
   -4.4060    2.1120    0.5830 C   0  0  0  0  0  0  0  0  0  0  0  0
   -0.8430   -2.5880   -0.3790 N   0  0  0  0  0  0  0  0  0  0  0  0
    0.4360   -2.8890   -0.2350 N   0  0  0  0  0  0  0  0  0  0  0  0
    3.3360   -0.5580   -0.0810 C   0  0  0  0  0  0  0  0  0  0  0  0
  1  2  2  0
  2  3  1  0
  2  5  1  0
  3  4  1  0
  5  6  2  0
  5 23  1  0
  6  7  1  0
  7  8  2  0
  8  9  1  0
  9 10  1  0
  9 23  2  0
 10 11  2  0
 10 22  1  0
 11 12  1  0
 12 13  1  0
 12 21  1  0
 13 14  1  0
 14 15  1  0
 15 16  2  0
 15 20  1  0
 16 17  1  0
 17 18  2  0
 18 19  1  0
 19 20  2  0
 21 22  2  0
M  END
