
     RDKit          3D

 23 25  0  0  0  0  0  0  0  0999 V2000
    5.4360   -0.6270    0.7060 C   0  0  0  0  0  0  0  0  0  0  0  0
    4.7990   -0.7680   -0.5310 O   0  0  0  0  0  0  0  0  0  0  0  0
    3.5650   -0.1330   -0.7960 C   0  0  0  0  0  0  0  0  0  0  0  0
    3.1000    0.5420    0.1270 O   0  0  0  0  0  0  0  0  0  0  0  0
    2.9960   -0.3520   -2.1200 C   0  0  0  0  0  0  0  0  0  0  0  0
    1.4480    0.4920   -2.4570 S   0  0  0  0  0  0  0  0  0  0  0  0
    0.1790   -0.1240   -1.3930 C   0  0  0  0  0  0  0  0  0  0  0  0
   -0.3050   -1.3860   -1.5700 C   0  0  0  0  0  0  0  0  0  0  0  0
   -1.3060   -1.9130   -0.7810 C   0  0  0  0  0  0  0  0  0  0  0  0
   -1.8170   -1.1230    0.2110 C   0  0  0  0  0  0  0  0  0  0  0  0
   -1.3370    0.1740    0.4120 C   0  0  0  0  0  0  0  0  0  0  0  0
   -0.3340    0.6990   -0.3880 C   0  0  0  0  0  0  0  0  0  0  0  0
    0.2310    1.9760   -0.2640 N   0  0  0  0  0  0  0  0  0  0  0  0
   -0.4150    3.0680    0.3560 C   0  0  0  0  0  0  0  0  0  0  0  0
   -1.7410    3.1420    0.6390 C   0  0  0  0  0  0  0  0  0  0  0  0
   -2.3080    4.1890    1.3140 N   0  0  0  0  0  0  0  0  0  0  0  0
   -1.5590    5.2170    1.7360 C   0  0  0  0  0  0  0  0  0  0  0  0
   -0.2140    5.1470    1.4480 C   0  0  0  0  0  0  0  0  0  0  0  0
    0.3460    4.1330    0.7940 N   0  0  0  0  0  0  0  0  0  0  0  0
   -2.8630   -1.6220    1.0580 N   0  0  0  0  0  0  0  0  0  0  0  0
   -3.5350   -2.8590    0.6460 C   0  0  0  0  0  0  0  0  0  0  0  0
   -2.4270   -3.8060    0.2320 C   0  0  0  0  0  0  0  0  0  0  0  0
   -1.7920   -3.3090   -1.0350 C   0  0  0  0  0  0  0  0  0  0  0  0
  1  2  1  0
  2  3  1  0
  3  4  2  0
  3  5  1  0
  5  6  1  0
  6  7  1  0
  7  8  2  0
  7 12  1  0
  8  9  1  0
  9 10  2  0
  9 23  1  0
 10 11  1  0
 10 20  1  0
 11 12  2  0
 12 13  1  0
 13 14  1  0
 14 15  2  0
 14 19  1  0
 15 16  1  0
 16 17  2  0
 17 18  1  0
 18 19  2  0
 20 21  1  0
 21 22  1  0
 22 23  1  0
M  END
