
     RDKit          3D

 18 19  0  0  0  0  0  0  0  0999 V2000
    2.3920    0.7030   -1.3400 O   0  0  0  0  0  0  0  0  0  0  0  0
    2.8510    0.1840   -0.3100 C   0  0  0  0  0  0  0  0  0  0  0  0
    2.0010   -0.4050    0.5950 O   0  0  0  0  0  0  0  0  0  0  0  0
    0.6390   -0.4000    0.3220 C   0  0  0  0  0  0  0  0  0  0  0  0
    0.0840   -1.4440   -0.3890 C   0  0  0  0  0  0  0  0  0  0  0  0
    0.9070   -2.4390   -0.7930 F   0  0  0  0  0  0  0  0  0  0  0  0
   -1.2700   -1.4990   -0.6950 C   0  0  0  0  0  0  0  0  0  0  0  0
   -2.1100   -0.4820   -0.2830 C   0  0  0  0  0  0  0  0  0  0  0  0
   -3.4290   -0.2690   -0.4280 N   0  0  0  0  0  0  0  0  0  0  0  0
   -3.7760    0.9010    0.1720 C   0  0  0  0  0  0  0  0  0  0  0  0
   -2.6340    1.4280    0.7060 C   0  0  0  0  0  0  0  0  0  0  0  0
   -1.5780    0.5780    0.4320 C   0  0  0  0  0  0  0  0  0  0  0  0
   -0.2110    0.6080    0.7270 C   0  0  0  0  0  0  0  0  0  0  0  0
    0.3120    1.6390    1.4240 F   0  0  0  0  0  0  0  0  0  0  0  0
    4.2980    0.1870   -0.0360 C   0  0  2  0  0  0  0  0  0  0  0  0
    4.9450    0.8170   -1.0530 F   0  0  0  0  0  0  0  0  0  0  0  0
    4.9920   -1.6420    0.0150 Br  0  0  0  0  0  0  0  0  0  0  0  0
    4.7110    1.0600    1.6410 Br  0  0  0  0  0  0  0  0  0  0  0  0
  1  2  2  0
  2  3  1  0
  2 15  1  0
  3  4  1  0
  4  5  2  0
  4 13  1  0
  5  6  1  0
  5  7  1  0
  7  8  2  0
  8  9  1  0
  8 12  1  0
  9 10  1  0
 10 11  2  0
 11 12  1  0
 12 13  2  0
 13 14  1  0
 15 16  1  6
 15 17  1  0
 15 18  1  0
M  END
