
     RDKit          3D

 18 18  0  0  0  0  0  0  0  0999 V2000
   -3.1720    0.4490   -1.8210 O   0  0  0  0  0  0  0  0  0  0  0  0
   -2.6640    0.5390   -0.6090 C   0  0  0  0  0  0  0  0  0  0  0  0
   -1.3300    1.1660   -0.4990 C   0  0  0  0  0  0  0  0  0  0  0  0
   -0.4550    0.1930    0.1880 N   0  0  0  0  0  0  0  0  0  0  0  0
    0.9190    0.3510    0.2320 C   0  0  0  0  0  0  0  0  0  0  0  0
    1.5480    1.4750    0.1050 C   0  0  0  0  0  0  0  0  0  0  0  0
    2.9660    1.5110    0.1860 C   0  0  0  0  0  0  0  0  0  0  0  0
    3.8440    3.2150   -0.0870 Br  0  0  0  0  0  0  0  0  0  0  0  0
    3.7550    0.4640    0.4090 C   0  0  0  0  0  0  0  0  0  0  0  0
    3.1280   -0.8500    0.5990 C   0  0  1  0  0  0  0  0  0  0  0  0
    3.9120   -1.8700    0.0540 F   0  0  0  0  0  0  0  0  0  0  0  0
    3.1940   -1.0130    2.0220 F   0  0  0  0  0  0  0  0  0  0  0  0
    1.7480   -0.9250    0.2440 C   0  0  0  0  0  0  0  0  0  0  0  0
    1.0850   -1.9950   -0.1780 C   0  0  0  0  0  0  0  0  0  0  0  0
    1.8450   -3.7010   -0.2490 Br  0  0  0  0  0  0  0  0  0  0  0  0
   -3.3870    0.0310    0.3990 O   0  0  0  0  0  0  0  0  0  0  0  0
   -4.6430   -0.5960    0.3080 C   0  0  0  0  0  0  0  0  0  0  0  0
   -5.5960    0.2830   -0.1420 F   0  0  0  0  0  0  0  0  0  0  0  0
  1  2  2  0
  2  3  1  0
  2 16  1  0
  3  4  1  0
  4  5  1  0
  5  6  2  0
  5 13  1  0
  6  7  1  0
  7  8  1  0
  7  9  2  0
  9 10  1  0
 10 11  1  6
 10 12  1  0
 10 13  1  0
 13 14  2  3
 14 15  1  0
 16 17  1  0
 17 18  1  0
M  END
