
     RDKit          3D

 18 19  0  0  0  0  0  0  0  0999 V2000
    4.0810    0.3320    0.2190 C   0  0  0  0  0  0  0  0  0  0  0  0
    2.6520    0.1120   -0.0900 C   0  0  0  0  0  0  0  0  0  0  0  0
    2.1620   -0.4340   -1.1520 O   0  0  0  0  0  0  0  0  0  0  0  0
    0.8380   -0.4630   -1.0820 C   0  0  0  0  0  0  0  0  0  0  0  0
   -0.0840   -0.9550   -1.9890 C   0  0  0  0  0  0  0  0  0  0  0  0
    0.3430   -1.4620   -3.0570 O   0  0  0  0  0  0  0  0  0  0  0  0
   -1.3700   -0.8570   -1.6660 N   0  0  0  0  0  0  0  0  0  0  0  0
   -1.8260   -0.3030   -0.4980 C   0  0  0  0  0  0  0  0  0  0  0  0
   -3.2880   -0.2430   -0.2940 C   0  0  1  0  0  0  0  0  0  0  0  0
   -3.9450   -0.8360   -1.3730 F   0  0  0  0  0  0  0  0  0  0  0  0
   -3.6910   -0.9180    0.8400 F   0  0  0  0  0  0  0  0  0  0  0  0
   -3.7640    1.0760   -0.2990 F   0  0  0  0  0  0  0  0  0  0  0  0
   -0.9260    0.1910    0.4160 C   0  0  0  0  0  0  0  0  0  0  0  0
   -1.3710    0.7670    1.6830 C   0  0  0  0  0  0  0  0  0  0  0  0
   -1.7580   -0.6620    2.9340 Br  0  0  0  0  0  0  0  0  0  0  0  0
    0.4210    0.1120    0.1240 C   0  0  0  0  0  0  0  0  0  0  0  0
    1.6040    0.4780    0.7560 C   0  0  0  0  0  0  0  0  0  0  0  0
    1.7270    1.3070    2.4430 Br  0  0  0  0  0  0  0  0  0  0  0  0
  1  2  1  0
  2  3  1  0
  2 17  2  0
  3  4  1  0
  4  5  1  0
  4 16  2  0
  5  6  2  0
  5  7  1  0
  7  8  1  0
  8  9  1  0
  8 13  2  0
  9 10  1  6
  9 11  1  0
  9 12  1  0
 13 14  1  0
 13 16  1  0
 14 15  1  0
 16 17  1  0
 17 18  1  0
M  END
