
     RDKit          3D

 21 23  0  0  0  0  0  0  0  0999 V2000
   -4.9090   -0.9610    1.8960 O   0  0  0  0  0  0  0  0  0  0  0  0
   -3.9410   -0.6830    1.2600 C   0  0  0  0  0  0  0  0  0  0  0  0
   -2.7420   -0.3150    1.9920 C   0  0  0  0  0  0  0  0  0  0  0  0
   -1.8820    0.5340    1.0360 C   0  0  2  0  0  0  0  0  0  0  0  0
   -2.6430    1.7390    0.5660 C   0  0  0  0  0  0  0  0  0  0  0  0
   -3.0270    1.4420   -0.8750 C   0  0  0  0  0  0  0  0  0  0  0  0
   -2.8930   -0.0430   -0.9090 C   0  0  2  0  0  0  0  0  0  0  0  0
   -4.0670   -0.7020   -0.1950 C   0  0  0  0  0  0  0  0  0  0  0  0
   -1.7270   -0.3590   -0.1790 N   0  0  0  0  0  0  0  0  0  0  0  0
   -0.4670   -0.0110   -0.7980 C   0  0  0  0  0  0  0  0  0  0  0  0
    0.4870   -1.1120   -0.3760 C   0  0  0  0  0  0  0  0  0  0  0  0
    1.8930   -0.6970   -0.4910 C   0  0  0  0  0  0  0  0  0  0  0  0
    2.8140   -1.5500    0.3050 C   0  0  0  0  0  0  0  0  0  0  0  0
    4.0790   -1.1410    0.3850 C   0  0  0  0  0  0  0  0  0  0  0  0
    4.5830   -0.1530   -0.1270 C   0  0  0  0  0  0  0  0  0  0  0  0
    6.0280    0.2830    0.0840 C   0  0  2  0  0  0  0  0  0  0  0  0
    6.6450    0.6110   -1.0780 F   0  0  0  0  0  0  0  0  0  0  0  0
    6.6970   -0.7660    0.6570 F   0  0  0  0  0  0  0  0  0  0  0  0
    6.0360    1.3120    1.0220 F   0  0  0  0  0  0  0  0  0  0  0  0
    3.7690    0.7310   -0.9410 C   0  0  0  0  0  0  0  0  0  0  0  0
    2.4510    0.3070   -1.0250 C   0  0  0  0  0  0  0  0  0  0  0  0
  1  2  2  0
  2  3  1  0
  2  8  1  0
  4  3  1  1
  4  5  1  0
  4  9  1  0
  5  6  1  0
  7  6  1  1
  7  8  1  0
  7  9  1  0
  9 10  1  0
 10 11  1  0
 11 12  1  0
 12 13  2  0
 12 21  1  0
 13 14  1  0
 14 15  2  0
 15 16  1  0
 15 20  1  0
 16 17  1  6
 16 18  1  0
 16 19  1  0
 20 21  2  0
M  END
