
     RDKit          3D

 18 19  0  0  0  0  0  0  0  0999 V2000
    4.5200   -1.4770    0.7830 O   0  0  0  0  0  0  0  0  0  0  0  0
    3.4770   -0.8230    0.5970 C   0  0  0  0  0  0  0  0  0  0  0  0
    3.5390    0.5660    0.4780 C   0  0  0  0  0  0  0  0  0  0  0  0
    2.3790    1.2780    0.2740 C   0  0  0  0  0  0  0  0  0  0  0  0
    2.5180    3.1690    0.1180 Br  0  0  0  0  0  0  0  0  0  0  0  0
    1.1490    0.6650    0.1810 C   0  0  0  0  0  0  0  0  0  0  0  0
   -0.0890    1.0840   -0.0060 O   0  0  0  0  0  0  0  0  0  0  0  0
   -0.9240    0.0700   -0.0140 C   0  0  0  0  0  0  0  0  0  0  0  0
   -2.3700    0.0670   -0.1860 C   0  0  0  0  0  0  0  0  0  0  0  0
   -3.0100   -0.8820   -0.8400 C   0  0  0  0  0  0  0  0  0  0  0  0
   -2.2470   -1.8900   -1.3650 F   0  0  0  0  0  0  0  0  0  0  0  0
   -4.8920   -0.8730   -1.0590 Br  0  0  0  0  0  0  0  0  0  0  0  0
   -3.1510    1.1810    0.3990 C   0  0  1  0  0  0  0  0  0  0  0  0
   -2.7770    2.4120   -0.1140 F   0  0  0  0  0  0  0  0  0  0  0  0
   -4.5000    1.0420    0.2780 F   0  0  0  0  0  0  0  0  0  0  0  0
   -0.1970   -1.1100    0.1800 C   0  0  0  0  0  0  0  0  0  0  0  0
    1.1210   -0.7110    0.3020 C   0  0  0  0  0  0  0  0  0  0  0  0
    2.2730   -1.4090    0.5050 N   0  0  0  0  0  0  0  0  0  0  0  0
  1  2  2  0
  2  3  1  0
  2 18  1  0
  3  4  2  0
  4  5  1  0
  4  6  1  0
  6  7  1  0
  6 17  2  0
  7  8  1  0
  8  9  1  0
  8 16  2  0
  9 10  2  3
  9 13  1  0
 10 11  1  0
 10 12  1  0
 13 14  1  6
 13 15  1  0
 16 17  1  0
 17 18  1  0
M  END
