
     RDKit          3D

 18 19  0  0  0  0  0  0  0  0999 V2000
    4.7150   -1.1330    0.2830 F   0  0  0  0  0  0  0  0  0  0  0  0
    4.9950    0.1880    0.2250 C   0  0  0  0  0  0  0  0  0  0  0  0
    6.2120    0.5830    0.6610 F   0  0  0  0  0  0  0  0  0  0  0  0
    4.1530    1.0690   -0.2240 C   0  0  0  0  0  0  0  0  0  0  0  0
    2.8510    0.7680   -0.7050 N   0  0  0  0  0  0  0  0  0  0  0  0
    1.9290    0.2400   -0.0250 C   0  0  0  0  0  0  0  0  0  0  0  0
    0.6130   -0.0240   -0.6440 C   0  0  2  0  0  0  0  0  0  0  0  0
    0.7140   -0.1550   -2.0170 F   0  0  0  0  0  0  0  0  0  0  0  0
   -0.2680    1.0300   -0.2830 O   0  0  0  0  0  0  0  0  0  0  0  0
   -1.5440    0.4840   -0.1180 C   0  0  0  0  0  0  0  0  0  0  0  0
   -2.7980    1.0550   -0.0520 C   0  0  0  0  0  0  0  0  0  0  0  0
   -3.9370    0.2770    0.1220 C   0  0  0  0  0  0  0  0  0  0  0  0
   -5.6660    1.0490    0.2140 Br  0  0  0  0  0  0  0  0  0  0  0  0
   -3.7950   -1.0790    0.2280 C   0  0  0  0  0  0  0  0  0  0  0  0
   -5.3730   -2.1540    0.4680 Br  0  0  0  0  0  0  0  0  0  0  0  0
   -2.5400   -1.6630    0.1630 C   0  0  0  0  0  0  0  0  0  0  0  0
   -1.4020   -0.8710   -0.0120 C   0  0  0  0  0  0  0  0  0  0  0  0
   -0.0430   -1.1420   -0.1140 O   0  0  0  0  0  0  0  0  0  0  0  0
  1  2  1  0
  2  3  1  0
  2  4  2  3
  4  5  1  0
  5  6  2  3
  6  7  1  0
  7  8  1  6
  7  9  1  0
  7 18  1  0
  9 10  1  0
 10 11  2  0
 10 17  1  0
 11 12  1  0
 12 13  1  0
 12 14  2  0
 14 15  1  0
 14 16  1  0
 16 17  2  0
 17 18  1  0
M  END
