
     RDKit          3D

 31 33  0  0  0  0  0  0  0  0999 V2000
    4.0740   -3.8070   -0.5350 C   0  0  0  0  0  0  0  0  0  0  0  0
    4.3340   -2.7720   -1.4340 O   0  0  0  0  0  0  0  0  0  0  0  0
    4.3480   -1.4560   -0.9620 C   0  0  0  0  0  0  0  0  0  0  0  0
    3.1600   -0.7140   -0.9650 C   0  0  0  0  0  0  0  0  0  0  0  0
    2.0030   -1.2840   -1.4270 O   0  0  0  0  0  0  0  0  0  0  0  0
    0.7540   -0.6630   -1.4650 C   0  0  0  0  0  0  0  0  0  0  0  0
    0.3190   -0.3170   -0.0840 C   0  0  0  0  0  0  0  0  0  0  0  0
    1.0290   -0.6380    0.9270 O   0  0  0  0  0  0  0  0  0  0  0  0
   -0.8930    0.3780    0.1770 N   0  0  0  0  0  0  0  0  0  0  0  0
   -1.2570    0.6810    1.5160 C   0  0  0  0  0  0  0  0  0  0  0  0
   -2.5150    1.4020    1.7630 C   0  0  0  0  0  0  0  0  0  0  0  0
   -3.7370    0.8260    1.3390 N   0  0  0  0  0  0  0  0  0  0  0  0
   -4.3980   -0.0720    2.1320 C   0  0  0  0  0  0  0  0  0  0  0  0
   -3.9110   -0.4210    3.2570 O   0  0  0  0  0  0  0  0  0  0  0  0
   -5.5670   -0.5820    1.7150 N   0  0  0  0  0  0  0  0  0  0  0  0
   -6.1330   -0.2560    0.5430 C   0  0  0  0  0  0  0  0  0  0  0  0
   -7.3370   -0.7820    0.1140 C   0  0  0  0  0  0  0  0  0  0  0  0
   -7.8980   -0.4310   -1.0960 C   0  0  0  0  0  0  0  0  0  0  0  0
   -7.2590    0.4720   -1.9220 C   0  0  0  0  0  0  0  0  0  0  0  0
   -7.8140    0.8160   -3.1110 F   0  0  0  0  0  0  0  0  0  0  0  0
   -6.0520    0.9990   -1.4890 C   0  0  0  0  0  0  0  0  0  0  0  0
   -5.4920    0.6450   -0.2780 C   0  0  0  0  0  0  0  0  0  0  0  0
   -4.2850    1.1640    0.1670 C   0  0  0  0  0  0  0  0  0  0  0  0
   -3.7500    1.9880   -0.6310 O   0  0  0  0  0  0  0  0  0  0  0  0
    3.2690    0.5730   -0.4820 C   0  0  0  0  0  0  0  0  0  0  0  0
    4.4440    1.1080   -0.0260 C   0  0  0  0  0  0  0  0  0  0  0  0
    4.5140    2.5070    0.4890 C   0  0  0  0  0  0  0  0  0  0  0  0
    5.5890    0.3380   -0.0420 C   0  0  0  0  0  0  0  0  0  0  0  0
    6.8460    0.9370    0.4550 C   0  0  0  0  0  0  0  0  0  0  0  0
    5.5470   -0.9660   -0.5170 C   0  0  0  0  0  0  0  0  0  0  0  0
    6.7030   -1.7260   -0.5280 O   0  0  0  0  0  0  0  0  0  0  0  0
  1  2  1  0
  2  3  1  0
  3  4  2  0
  3 30  1  0
  4  5  1  0
  4 25  1  0
  5  6  1  0
  6  7  1  0
  7  8  2  0
  7  9  1  0
  9 10  1  0
 10 11  1  0
 11 12  1  0
 12 13  1  0
 12 23  1  0
 13 14  2  0
 13 15  1  0
 15 16  1  0
 16 17  2  0
 16 22  1  0
 17 18  1  0
 18 19  2  0
 19 20  1  0
 19 21  1  0
 21 22  2  0
 22 23  1  0
 23 24  2  0
 25 26  2  0
 26 27  1  0
 26 28  1  0
 28 29  1  0
 28 30  2  0
 30 31  1  0
M  END
