
     RDKit          3D

 31 33  0  0  0  0  0  0  0  0999 V2000
   -6.4800    3.2600    1.8000 C   0  0  0  0  0  0  0  0  0  0  0  0
   -5.8540    2.5040    0.7470 N   0  0  0  0  0  0  0  0  0  0  0  0
   -5.6710    1.1090    0.9100 C   0  0  0  0  0  0  0  0  0  0  0  0
   -6.0670    0.4300    2.0320 C   0  0  0  0  0  0  0  0  0  0  0  0
   -5.8700   -0.9390    2.1530 C   0  0  0  0  0  0  0  0  0  0  0  0
   -5.2700   -1.6420    1.1410 C   0  0  0  0  0  0  0  0  0  0  0  0
   -4.8700   -0.9390    0.0010 C   0  0  0  0  0  0  0  0  0  0  0  0
   -5.0570    0.4090   -0.1320 C   0  0  0  0  0  0  0  0  0  0  0  0
   -4.6600    1.1100   -1.3670 C   0  0  0  0  0  0  0  0  0  0  0  0
   -3.9980    0.2390   -2.2380 O   0  0  0  0  0  0  0  0  0  0  0  0
   -2.7650   -0.2910   -1.8090 C   0  0  0  0  0  0  0  0  0  0  0  0
   -2.2680    0.0090   -0.6880 O   0  0  0  0  0  0  0  0  0  0  0  0
   -2.0760   -1.2130   -2.7260 C   0  0  0  0  0  0  0  0  0  0  0  0
   -0.8170   -1.6440   -2.0950 N   0  0  0  0  0  0  0  0  0  0  0  0
    0.1660   -0.6990   -1.7460 C   0  0  0  0  0  0  0  0  0  0  0  0
   -0.0110    0.5060   -1.9620 O   0  0  0  0  0  0  0  0  0  0  0  0
    1.4000   -1.1550   -1.1250 C   0  0  0  0  0  0  0  0  0  0  0  0
    1.6030   -2.3820   -0.8950 O   0  0  0  0  0  0  0  0  0  0  0  0
    2.3980   -0.2450   -0.7640 N   0  0  0  0  0  0  0  0  0  0  0  0
    3.6480   -0.5060   -0.1560 C   0  0  0  0  0  0  0  0  0  0  0  0
    4.1320   -1.7330    0.2090 C   0  0  0  0  0  0  0  0  0  0  0  0
    5.3880   -1.9150    0.8100 C   0  0  0  0  0  0  0  0  0  0  0  0
    6.1990   -0.8320    1.0610 C   0  0  0  0  0  0  0  0  0  0  0  0
    5.7270    0.4130    0.7000 C   0  0  0  0  0  0  0  0  0  0  0  0
    4.4950    0.5780    0.1110 C   0  0  0  0  0  0  0  0  0  0  0  0
    4.0810    1.8670   -0.2280 O   0  0  0  0  0  0  0  0  0  0  0  0
    4.8850    2.9920    0.0140 C   0  0  0  0  0  0  0  0  0  0  0  0
    5.1900    3.1700    1.3480 F   0  0  0  0  0  0  0  0  0  0  0  0
    7.4560   -1.2970    1.6970 C   0  0  0  0  0  0  0  0  0  0  0  0
    7.4520   -2.7740    1.3670 C   0  0  0  0  0  0  0  0  0  0  0  0
    6.0670   -3.0410    1.2540 O   0  0  0  0  0  0  0  0  0  0  0  0
  1  2  1  0
  2  3  1  0
  3  4  2  0
  3  8  1  0
  4  5  1  0
  5  6  2  0
  6  7  1  0
  7  8  2  0
  8  9  1  0
  9 10  1  0
 10 11  1  0
 11 12  2  0
 11 13  1  0
 13 14  1  0
 14 15  1  0
 15 16  2  0
 15 17  1  0
 17 18  2  0
 17 19  1  0
 19 20  1  0
 20 21  2  0
 20 25  1  0
 21 22  1  0
 22 23  2  0
 22 31  1  0
 23 24  1  0
 23 29  1  0
 24 25  2  0
 25 26  1  0
 26 27  1  0
 27 28  1  0
 29 30  1  0
 30 31  1  0
M  END
