
     RDKit          3D

 31 34  0  0  0  0  0  0  0  0999 V2000
   -4.4190    3.1520   -1.3350 C   0  0  0  0  0  0  0  0  0  0  0  0
   -5.0330    2.1820   -0.7280 C   0  0  0  0  0  0  0  0  0  0  0  0
   -4.5730    1.0410   -0.0270 C   0  0  0  0  0  0  0  0  0  0  0  0
   -5.4880    0.2540    0.5560 C   0  0  0  0  0  0  0  0  0  0  0  0
   -5.6600   -0.9410    1.3460 C   0  0  0  0  0  0  0  0  0  0  0  0
   -4.8070   -1.0520    2.6560 C   0  0  0  0  0  0  0  0  0  0  0  0
   -3.6450   -0.4490    2.3050 C   0  0  0  0  0  0  0  0  0  0  0  0
   -2.2900    0.0280    2.3100 C   0  0  0  0  0  0  0  0  0  0  0  0
   -2.1590    0.4720    0.8640 C   0  0  0  0  0  0  0  0  0  0  0  0
   -3.1200    0.8720   -0.1010 C   0  0  0  0  0  0  0  0  0  0  0  0
   -2.5030    1.1260   -1.2630 N   0  0  0  0  0  0  0  0  0  0  0  0
   -1.1780    0.9010   -1.0550 C   0  0  0  0  0  0  0  0  0  0  0  0
   -0.1350    1.0550   -2.0480 C   0  0  0  0  0  0  0  0  0  0  0  0
   -0.4910    1.5020   -3.4400 C   0  0  0  0  0  0  0  0  0  0  0  0
    1.0540    0.8300   -1.7890 O   0  0  0  0  0  0  0  0  0  0  0  0
   -0.9540    0.4930    0.2630 C   0  0  0  0  0  0  0  0  0  0  0  0
    0.3190    0.1100    0.8750 C   0  0  0  0  0  0  0  0  0  0  0  0
    0.6530   -1.3430    0.8500 C   0  0  0  0  0  0  0  0  0  0  0  0
    1.9530   -1.4750    1.5300 N   0  0  0  0  0  0  0  0  0  0  0  0
    3.1770   -1.4240    0.9830 C   0  0  0  0  0  0  0  0  0  0  0  0
    3.5150   -1.1780   -0.7490 S   0  0  0  0  0  0  0  0  0  0  0  0
    5.2660   -1.1730   -1.0680 C   0  0  0  0  0  0  0  0  0  0  0  0
    6.0920   -2.2310   -1.3770 C   0  0  0  0  0  0  0  0  0  0  0  0
    7.3410   -1.7450   -1.5340 N   0  0  0  0  0  0  0  0  0  0  0  0
    7.3550   -0.4320   -1.3410 N   0  0  0  0  0  0  0  0  0  0  0  0
    8.5260    0.4270   -1.4290 C   0  0  0  0  0  0  0  0  0  0  0  0
    6.0900   -0.0490   -1.0520 C   0  0  0  0  0  0  0  0  0  0  0  0
    4.0630   -1.5920    1.9860 N   0  0  0  0  0  0  0  0  0  0  0  0
    3.3840   -1.7420    3.1110 N   0  0  0  0  0  0  0  0  0  0  0  0
    2.0650   -1.6730    2.8550 C   0  0  0  0  0  0  0  0  0  0  0  0
    1.1710   -1.7810    3.7310 O   0  0  0  0  0  0  0  0  0  0  0  0
  1  2  2  0
  2  3  1  0
  3  4  2  0
  3 10  1  0
  4  5  1  0
  5  6  1  0
  6  7  1  0
  7  8  1  0
  8  9  1  0
  9 10  2  0
  9 16  1  0
 10 11  1  0
 11 12  1  0
 12 13  1  0
 12 16  2  0
 13 14  1  0
 13 15  2  0
 16 17  1  0
 17 18  1  0
 18 19  1  0
 19 20  1  0
 19 30  1  0
 20 21  1  0
 20 28  2  0
 21 22  1  0
 22 23  1  0
 22 27  2  0
 23 24  2  0
 24 25  1  0
 25 26  1  0
 25 27  1  0
 28 29  1  0
 29 30  1  0
 30 31  2  0
M  END
