
     RDKit          3D

 31 33  0  0  0  0  0  0  0  0999 V2000
   -4.9570    2.3230   -1.9200 C   0  0  0  0  0  0  0  0  0  0  0  0
   -4.6210    0.9700   -2.0910 O   0  0  0  0  0  0  0  0  0  0  0  0
   -4.7320    0.3770   -0.8410 C   0  0  0  0  0  0  0  0  0  0  0  0
   -4.4130   -1.1210   -0.8930 C   0  0  0  0  0  0  0  0  0  0  0  0
   -4.5950   -1.6060    0.4860 N   0  0  0  0  0  0  0  0  0  0  0  0
   -5.7800   -2.0160    0.9640 C   0  0  0  0  0  0  0  0  0  0  0  0
   -6.9710   -2.0520    0.2480 O   0  0  0  0  0  0  0  0  0  0  0  0
   -5.6490   -2.3900    2.2460 N   0  0  0  0  0  0  0  0  0  0  0  0
   -4.3670   -2.2170    2.5880 C   0  0  0  0  0  0  0  0  0  0  0  0
   -3.7670   -2.4920    3.8730 N   0  0  0  0  0  0  0  0  0  0  0  0
   -3.7200   -1.7260    1.4730 C   0  0  0  0  0  0  0  0  0  0  0  0
   -2.3000   -1.3980    1.4040 C   0  0  0  0  0  0  0  0  0  0  0  0
   -1.6200   -1.5580    2.4480 O   0  0  0  0  0  0  0  0  0  0  0  0
   -1.6390   -0.9280    0.2920 O   0  0  0  0  0  0  0  0  0  0  0  0
   -0.2820   -0.6270    0.2790 C   0  0  0  0  0  0  0  0  0  0  0  0
    0.6300   -1.6290    0.5040 C   0  0  0  0  0  0  0  0  0  0  0  0
    1.9970   -1.3650    0.4970 C   0  0  0  0  0  0  0  0  0  0  0  0
    2.4560   -0.0920    0.2640 C   0  0  0  0  0  0  0  0  0  0  0  0
    3.8810    0.1880    0.2270 C   0  0  0  0  0  0  0  0  0  0  0  0
    4.5980    0.0540   -0.9590 C   0  0  0  0  0  0  0  0  0  0  0  0
    5.9510    0.3010   -0.9950 C   0  0  0  0  0  0  0  0  0  0  0  0
    6.6620    0.1660   -2.1780 O   0  0  0  0  0  0  0  0  0  0  0  0
    8.0340    0.4190   -2.2250 C   0  0  0  0  0  0  0  0  0  0  0  0
    6.5550    0.6810    0.1720 C   0  0  0  0  0  0  0  0  0  0  0  0
    5.8610    0.8190    1.3590 C   0  0  0  0  0  0  0  0  0  0  0  0
    4.4980    0.5730    1.4140 C   0  0  0  0  0  0  0  0  0  0  0  0
    3.7850    0.7000    2.5560 F   0  0  0  0  0  0  0  0  0  0  0  0
    1.5610    0.9200    0.0370 C   0  0  0  0  0  0  0  0  0  0  0  0
    2.0080    2.2120   -0.2040 O   0  0  0  0  0  0  0  0  0  0  0  0
    1.0050    3.2170   -0.4320 C   0  0  0  0  0  0  0  0  0  0  0  0
    0.1920    0.6420    0.0470 C   0  0  0  0  0  0  0  0  0  0  0  0
  1  2  1  0
  2  3  1  0
  3  4  1  0
  4  5  1  0
  5  6  1  0
  5 11  1  0
  6  7  1  0
  6  8  2  0
  8  9  1  0
  9 10  1  0
  9 11  2  0
 11 12  1  0
 12 13  2  0
 12 14  1  0
 14 15  1  0
 15 16  2  0
 15 31  1  0
 16 17  1  0
 17 18  2  0
 18 19  1  0
 18 28  1  0
 19 20  2  0
 19 26  1  0
 20 21  1  0
 21 22  1  0
 21 24  2  0
 22 23  1  0
 24 25  1  0
 25 26  2  0
 26 27  1  0
 28 29  1  0
 28 31  2  0
 29 30  1  0
M  END
