
     RDKit          3D

 31 33  0  0  0  0  0  0  0  0999 V2000
   -5.4090    2.8600    0.3200 C   0  0  0  0  0  0  0  0  0  0  0  0
   -4.8090    1.5260    0.2300 N   0  0  0  0  0  0  0  0  0  0  0  0
   -5.0910    0.6810   -0.8660 C   0  0  0  0  0  0  0  0  0  0  0  0
   -5.9610    1.1880   -1.8480 C   0  0  0  0  0  0  0  0  0  0  0  0
   -6.3050    0.4890   -2.9330 N   0  0  0  0  0  0  0  0  0  0  0  0
   -5.8180   -0.7430   -3.1160 C   0  0  0  0  0  0  0  0  0  0  0  0
   -4.9650   -1.2630   -2.1720 C   0  0  0  0  0  0  0  0  0  0  0  0
   -4.5770   -0.5730   -1.0240 C   0  0  0  0  0  0  0  0  0  0  0  0
   -3.6750   -1.1680   -0.0590 C   0  0  0  0  0  0  0  0  0  0  0  0
   -3.2690   -0.6390    0.9920 O   0  0  0  0  0  0  0  0  0  0  0  0
   -3.1670   -2.4620   -0.2600 O   0  0  0  0  0  0  0  0  0  0  0  0
   -2.2970   -3.1070    0.6180 C   0  0  0  0  0  0  0  0  0  0  0  0
   -1.0110   -2.4350    0.8500 C   0  0  0  0  0  0  0  0  0  0  0  0
    0.0120   -2.4430   -0.0730 C   0  0  0  0  0  0  0  0  0  0  0  0
    1.2040   -1.7900    0.2170 C   0  0  0  0  0  0  0  0  0  0  0  0
    1.4350   -1.1330    1.3630 N   0  0  0  0  0  0  0  0  0  0  0  0
    2.6900   -0.4610    1.6480 C   0  0  0  0  0  0  0  0  0  0  0  0
    2.6130    0.9680    1.1910 C   0  0  2  0  0  0  0  0  0  0  0  0
    1.5680    1.6130    1.8640 O   0  0  0  0  0  0  0  0  0  0  0  0
    2.4280    1.0500   -0.2860 C   0  0  0  0  0  0  0  0  0  0  0  0
    3.4860    0.4220   -0.9690 O   0  0  0  0  0  0  0  0  0  0  0  0
    4.7780    0.8690   -0.8010 C   0  0  0  0  0  0  0  0  0  0  0  0
    5.7050    0.0260   -0.4060 C   0  0  0  0  0  0  0  0  0  0  0  0
    7.1160    0.4350   -0.2040 C   0  0  0  0  0  0  0  0  0  0  0  0
    7.3060    1.7880   -0.4820 O   0  0  0  0  0  0  0  0  0  0  0  0
    6.3470    2.6770   -0.8940 C   0  0  0  0  0  0  0  0  0  0  0  0
    5.0980    2.2600   -1.0610 C   0  0  0  0  0  0  0  0  0  0  0  0
    4.1260    3.1270   -1.4720 F   0  0  0  0  0  0  0  0  0  0  0  0
    0.4300   -1.1210    2.2790 C   0  0  0  0  0  0  0  0  0  0  0  0
    0.6500   -0.5030    3.3570 O   0  0  0  0  0  0  0  0  0  0  0  0
   -0.7690   -1.7590    2.0270 C   0  0  0  0  0  0  0  0  0  0  0  0
  1  2  1  0
  2  3  1  0
  3  4  2  0
  3  8  1  0
  4  5  1  0
  5  6  2  0
  6  7  1  0
  7  8  2  0
  8  9  1  0
  9 10  2  0
  9 11  1  0
 11 12  1  0
 12 13  1  0
 13 14  1  0
 13 31  2  0
 14 15  2  0
 15 16  1  0
 16 17  1  0
 16 29  1  0
 17 18  1  0
 18 19  1  1
 18 20  1  0
 20 21  1  0
 21 22  1  0
 22 23  2  0
 22 27  1  0
 23 24  1  0
 24 25  1  0
 25 26  1  0
 26 27  2  0
 27 28  1  0
 29 30  2  0
 29 31  1  0
M  END
