
     RDKit          3D

 31 33  0  0  0  0  0  0  0  0999 V2000
   -8.5180    1.9880   -1.0450 C   0  0  0  0  0  0  0  0  0  0  0  0
   -8.4370    1.0610    0.1410 C   0  0  0  0  0  0  0  0  0  0  0  0
   -7.1420    0.4640    0.1120 O   0  0  0  0  0  0  0  0  0  0  0  0
   -6.6870   -0.4360    1.0250 C   0  0  0  0  0  0  0  0  0  0  0  0
   -7.5340   -0.7300    1.9590 O   0  0  0  0  0  0  0  0  0  0  0  0
   -5.3940   -1.0410    1.0080 C   0  0  0  0  0  0  0  0  0  0  0  0
   -4.3750   -0.9340    0.2140 C   0  0  0  0  0  0  0  0  0  0  0  0
   -3.1440   -1.7230    0.4810 C   0  0  0  0  0  0  0  0  0  0  0  0
   -2.0770   -1.6840   -0.2530 C   0  0  0  0  0  0  0  0  0  0  0  0
   -0.9020   -2.4630    0.0380 N   0  0  0  0  0  0  0  0  0  0  0  0
    0.3420   -1.8180    0.2830 C   0  0  0  0  0  0  0  0  0  0  0  0
    0.3370   -0.5610    0.2260 O   0  0  0  0  0  0  0  0  0  0  0  0
    1.5780   -2.6090    0.5890 C   0  0  0  0  0  0  0  0  0  0  0  0
    2.7420   -1.7570    0.8070 C   0  0  0  0  0  0  0  0  0  0  0  0
    3.3740   -1.8030    1.9870 C   0  0  0  0  0  0  0  0  0  0  0  0
    4.4820   -1.0170    2.2500 O   0  0  0  0  0  0  0  0  0  0  0  0
    4.9620   -0.1530    1.2720 C   0  0  0  0  0  0  0  0  0  0  0  0
    6.0660    0.6540    1.4830 C   0  0  0  0  0  0  0  0  0  0  0  0
    6.5100    1.4980    0.4860 C   0  0  0  0  0  0  0  0  0  0  0  0
    7.6820    2.3320    0.7590 C   0  0  0  0  0  0  0  0  0  0  0  0
    5.8900    1.5760   -0.7380 C   0  0  0  0  0  0  0  0  0  0  0  0
    6.3920    2.5040   -1.8090 C   0  0  0  0  0  0  0  0  0  0  0  0
    6.0350    3.8050   -1.5250 F   0  0  0  0  0  0  0  0  0  0  0  0
    4.7860    0.7720   -0.9540 C   0  0  0  0  0  0  0  0  0  0  0  0
    4.3300   -0.0770    0.0330 C   0  0  0  0  0  0  0  0  0  0  0  0
    3.2030   -0.8860   -0.2140 N   0  0  0  0  0  0  0  0  0  0  0  0
   -2.0440   -0.8220   -1.4280 C   0  0  0  0  0  0  0  0  0  0  0  0
   -0.9900   -0.8030   -2.1260 O   0  0  0  0  0  0  0  0  0  0  0  0
   -3.1480   -0.0150   -1.8000 N   0  0  0  0  0  0  0  0  0  0  0  0
   -4.3260   -0.0870   -0.9510 C   0  0  0  0  0  0  0  0  0  0  0  0
   -5.2850    0.6300   -1.2970 O   0  0  0  0  0  0  0  0  0  0  0  0
  1  2  1  0
  2  3  1  0
  3  4  1  0
  4  5  2  0
  4  6  1  0
  6  7  2  3
  7  8  1  0
  7 30  1  0
  8  9  2  0
  9 10  1  0
  9 27  1  0
 10 11  1  0
 11 12  2  0
 11 13  1  0
 13 14  1  0
 14 15  2  0
 14 26  1  0
 15 16  1  0
 16 17  1  0
 17 18  2  0
 17 25  1  0
 18 19  1  0
 19 20  1  0
 19 21  2  0
 21 22  1  0
 21 24  1  0
 22 23  1  0
 24 25  2  0
 25 26  1  0
 27 28  2  0
 27 29  1  0
 29 30  1  0
 30 31  2  0
M  END
