
     RDKit          3D

 31 33  0  0  0  0  0  0  0  0999 V2000
   -5.8080    0.5970    1.2320 C   0  0  0  0  0  0  0  0  0  0  0  0
   -6.1970    0.1360   -0.1330 C   0  0  1  0  0  0  0  0  0  0  0  0
   -7.6960   -0.2670   -0.1100 C   0  0  0  0  0  0  0  0  0  0  0  0
   -6.0440    1.2320   -1.1190 C   0  0  0  0  0  0  0  0  0  0  0  0
   -5.9460    1.0310   -2.3090 O   0  0  0  0  0  0  0  0  0  0  0  0
   -5.4730   -1.1060   -0.5150 C   0  0  0  0  0  0  0  0  0  0  0  0
   -4.0360   -1.1180   -0.5800 C   0  0  0  0  0  0  0  0  0  0  0  0
   -3.4750   -2.2800   -0.7260 O   0  0  0  0  0  0  0  0  0  0  0  0
   -3.1140   -0.0090   -0.5070 C   0  0  0  0  0  0  0  0  0  0  0  0
   -3.5230    1.1600   -0.3800 O   0  0  0  0  0  0  0  0  0  0  0  0
   -1.7170   -0.2040   -0.5770 N   0  0  0  0  0  0  0  0  0  0  0  0
   -0.7210    0.8020   -0.5230 C   0  0  0  0  0  0  0  0  0  0  0  0
   -0.9440    2.1460   -0.6660 C   0  0  0  0  0  0  0  0  0  0  0  0
    0.1070    3.0680   -0.5790 C   0  0  0  0  0  0  0  0  0  0  0  0
   -0.1990    4.3910   -0.7330 F   0  0  0  0  0  0  0  0  0  0  0  0
    1.3820    2.6510   -0.3500 C   0  0  0  0  0  0  0  0  0  0  0  0
    1.6370    1.3000   -0.2010 C   0  0  0  0  0  0  0  0  0  0  0  0
    3.0360    0.9110    0.0410 C   0  0  0  0  0  0  0  0  0  0  0  0
    3.9280    1.7850   -0.0580 O   0  0  0  0  0  0  0  0  0  0  0  0
    3.4280   -0.4020    0.3800 N   0  0  0  0  0  0  0  0  0  0  0  0
    4.7290   -0.8810    0.6280 C   0  0  0  0  0  0  0  0  0  0  0  0
    4.8690   -2.1960    1.0730 C   0  0  0  0  0  0  0  0  0  0  0  0
    6.0960   -2.7730    1.3410 C   0  0  0  0  0  0  0  0  0  0  0  0
    7.2590   -2.0540    1.1750 C   0  0  0  0  0  0  0  0  0  0  0  0
    8.5330   -2.3330    1.3480 O   0  0  0  0  0  0  0  0  0  0  0  0
    9.2650   -1.2750    1.0420 C   0  0  0  0  0  0  0  0  0  0  0  0
   10.5290   -1.2660    1.1180 O   0  0  0  0  0  0  0  0  0  0  0  0
    8.4200   -0.3020    0.6660 N   0  0  0  0  0  0  0  0  0  0  0  0
    7.1590   -0.7540    0.7370 C   0  0  0  0  0  0  0  0  0  0  0  0
    5.8970   -0.1910    0.4720 C   0  0  0  0  0  0  0  0  0  0  0  0
    0.6150    0.4250   -0.2870 C   0  0  0  0  0  0  0  0  0  0  0  0
  2  1  1  1
  2  3  1  0
  2  4  1  0
  2  6  1  0
  4  5  2  0
  6  7  1  0
  7  8  2  0
  7  9  1  0
  9 10  2  0
  9 11  1  0
 11 12  1  0
 12 13  2  0
 12 31  1  0
 13 14  1  0
 14 15  1  0
 14 16  2  0
 16 17  1  0
 17 18  1  0
 17 31  2  0
 18 19  2  0
 18 20  1  0
 20 21  1  0
 21 22  2  0
 21 30  1  0
 22 23  1  0
 23 24  2  0
 24 25  1  0
 24 29  1  0
 25 26  1  0
 26 27  2  0
 26 28  1  0
 28 29  1  0
 29 30  2  0
M  END
