
     RDKit          3D

 29 32  0  0  0  0  0  0  0  0999 V2000
    3.5150    2.8590    0.9960 C   0  0  0  0  0  0  0  0  0  0  0  0
    3.5040    1.5800    0.7130 C   0  0  0  0  0  0  0  0  0  0  0  0
    2.2760    1.0190    0.3350 C   0  0  0  0  0  0  0  0  0  0  0  0
    2.2130   -0.3130    0.0290 C   0  0  0  0  0  0  0  0  0  0  0  0
    0.9790   -0.9380   -0.3650 N   0  0  0  0  0  0  0  0  0  0  0  0
   -0.2120   -0.2150   -0.4410 C   0  0  1  0  0  0  0  0  0  0  0  0
   -0.2840    0.6370   -1.7090 C   0  0  0  0  0  0  0  0  0  0  0  0
   -0.8120    1.9960   -1.5300 C   0  0  0  0  0  0  0  0  0  0  0  0
   -1.8710    2.1710   -0.5060 C   0  0  0  0  0  0  0  0  0  0  0  0
   -2.9120    1.1330   -0.4560 C   0  0  0  0  0  0  0  0  0  0  0  0
   -4.1380    1.6520   -0.4100 C   0  0  0  0  0  0  0  0  0  0  0  0
   -4.2940    3.1220   -0.4150 C   0  0  0  0  0  0  0  0  0  0  0  0
   -5.2740    0.7790   -0.3340 N   0  0  0  0  0  0  0  0  0  0  0  0
   -5.1000   -0.6160   -0.3110 C   0  0  0  0  0  0  0  0  0  0  0  0
   -6.3890   -1.5930   -0.2240 S   0  0  0  0  0  0  0  0  0  0  0  0
   -3.7900   -1.2050   -0.3620 N   0  0  0  0  0  0  0  0  0  0  0  0
   -2.6890   -0.3380   -0.4330 C   0  0  0  0  0  0  0  0  0  0  0  0
   -1.4950   -0.9600   -0.3540 C   0  0  0  0  0  0  0  0  0  0  0  0
   -1.4900   -2.3390    0.0360 C   0  0  0  0  0  0  0  0  0  0  0  0
   -0.3810   -3.0110    0.0640 O   0  0  0  0  0  0  0  0  0  0  0  0
   -2.5800   -3.0810    0.4170 O   0  0  0  0  0  0  0  0  0  0  0  0
   -2.4600   -4.4600    0.8060 C   0  0  0  0  0  0  0  0  0  0  0  0
    3.3860   -1.0580    0.1090 C   0  0  0  0  0  0  0  0  0  0  0  0
    3.6070   -2.3950   -0.1390 C   0  0  0  0  0  0  0  0  0  0  0  0
    4.9350   -2.6650    0.0780 C   0  0  0  0  0  0  0  0  0  0  0  0
    5.5100   -1.5090    0.4510 N   0  0  0  0  0  0  0  0  0  0  0  0
    4.5790   -0.5230    0.4750 C   0  0  0  0  0  0  0  0  0  0  0  0
    4.6620    0.8210    0.7870 C   0  0  0  0  0  0  0  0  0  0  0  0
    5.8300    1.3090    1.1370 C   0  0  0  0  0  0  0  0  0  0  0  0
  1  2  2  0
  2  3  1  0
  2 28  1  0
  3  4  2  0
  4  5  1  0
  4 23  1  0
  6  5  1  6
  6  7  1  0
  6 18  1  0
  7  8  1  0
  8  9  1  0
  9 10  1  0
 10 11  2  0
 10 17  1  0
 11 12  1  0
 11 13  1  0
 13 14  1  0
 14 15  2  0
 14 16  1  0
 16 17  1  0
 17 18  2  0
 18 19  1  0
 19 20  2  0
 19 21  1  0
 21 22  1  0
 23 24  1  0
 23 27  2  0
 24 25  2  0
 25 26  1  0
 26 27  1  0
 27 28  1  0
 28 29  2  0
M  END
