
     RDKit          3D

 29 31  0  0  0  0  0  0  0  0999 V2000
    6.8620   -1.0980   -0.3000 C   0  0  0  0  0  0  0  0  0  0  0  0
    6.3010    0.0360    0.0240 C   0  0  0  0  0  0  0  0  0  0  0  0
    7.1200    1.2750    0.0450 C   0  0  0  0  0  0  0  0  0  0  0  0
    4.9440    0.1480    0.3380 C   0  0  0  0  0  0  0  0  0  0  0  0
    4.4160    1.3110    0.6750 O   0  0  0  0  0  0  0  0  0  0  0  0
    3.9320   -0.8090    0.3610 N   0  0  0  0  0  0  0  0  0  0  0  0
    2.6390   -0.3570    0.9320 C   0  0  0  0  0  0  0  0  0  0  0  0
    1.7600   -0.5790    0.1250 N   0  0  0  0  0  0  0  0  0  0  0  0
    0.3970   -0.4330   -0.0350 C   0  0  0  0  0  0  0  0  0  0  0  0
   -0.0490   -0.6780   -1.2560 C   0  0  0  0  0  0  0  0  0  0  0  0
   -1.3150   -0.6420   -1.7940 N   0  0  0  0  0  0  0  0  0  0  0  0
   -2.3500   -1.6090   -1.7000 C   0  0  0  0  0  0  0  0  0  0  0  0
   -3.4100   -1.3410   -2.4010 O   0  0  0  0  0  0  0  0  0  0  0  0
   -2.4110   -2.8330   -0.9590 C   0  0  0  0  0  0  0  0  0  0  0  0
   -2.6670   -3.1100    0.2810 C   0  0  0  0  0  0  0  0  0  0  0  0
   -3.0010   -2.2710    1.4030 C   0  0  0  0  0  0  0  0  0  0  0  0
   -3.5780   -1.0960    1.4710 C   0  0  0  0  0  0  0  0  0  0  0  0
   -4.1020   -0.1590    0.5350 C   0  0  0  0  0  0  0  0  0  0  0  0
   -3.5770    0.9900    0.0390 C   0  0  0  0  0  0  0  0  0  0  0  0
   -2.3340    1.4980    0.3880 C   0  0  0  0  0  0  0  0  0  0  0  0
   -2.0080    2.6860   -0.1420 N   0  0  0  0  0  0  0  0  0  0  0  0
   -2.7070    3.4430   -0.9550 C   0  0  0  0  0  0  0  0  0  0  0  0
   -3.9420    2.9730   -1.3280 C   0  0  0  0  0  0  0  0  0  0  0  0
   -4.3630    1.7370   -0.8180 C   0  0  0  0  0  0  0  0  0  0  0  0
   -5.5690    1.3640   -1.2520 C   0  0  0  0  0  0  0  0  0  0  0  0
   -1.3340    0.8970    1.2620 C   0  0  0  0  0  0  0  0  0  0  0  0
   -0.2940    0.1540    1.0940 C   0  0  0  0  0  0  0  0  0  0  0  0
    0.5230   -0.4440    2.6260 S   0  0  0  0  0  0  0  0  0  0  0  0
    2.2970   -0.1210    2.3430 C   0  0  0  0  0  0  0  0  0  0  0  0
  1  2  2  0
  2  3  1  0
  2  4  1  0
  4  5  2  0
  4  6  1  0
  6  7  1  0
  7  8  2  0
  7 29  1  0
  8  9  1  0
  9 10  2  0
  9 27  1  0
 10 11  1  0
 11 12  1  0
 12 13  2  0
 12 14  1  0
 14 15  2  0
 15 16  1  0
 16 17  2  0
 17 18  1  0
 18 19  2  0
 19 20  1  0
 19 24  1  0
 20 21  2  0
 20 26  1  0
 21 22  1  0
 22 23  2  0
 23 24  1  0
 24 25  2  0
 26 27  2  0
 27 28  1  0
 28 29  1  0
M  END
