
     RDKit          3D

 29 33  0  0  0  0  0  0  0  0999 V2000
   -7.0960    0.4860   -2.0640 C   0  0  0  0  0  0  0  0  0  0  0  0
   -5.9520    0.8450   -1.1450 C   0  0  1  0  0  0  0  0  0  0  0  0
   -6.2160    2.1010   -0.3630 C   0  0  0  0  0  0  0  0  0  0  0  0
   -5.9020    1.7150    1.0480 C   0  0  0  0  0  0  0  0  0  0  0  0
   -5.2110    0.3680    0.9980 C   0  0  0  0  0  0  0  0  0  0  0  0
   -5.7970   -0.2270   -0.1820 N   0  0  2  0  0  0  0  0  0  0  0  0
   -5.0650   -1.3400   -0.6850 C   0  0  0  0  0  0  0  0  0  0  0  0
   -3.6340   -1.3400   -0.2400 C   0  0  0  0  0  0  0  0  0  0  0  0
   -3.1440   -1.9130    0.8710 N   0  0  0  0  0  0  0  0  0  0  0  0
   -1.8190   -1.7250    0.9700 C   0  0  0  0  0  0  0  0  0  0  0  0
   -0.8380   -2.0810    1.8700 C   0  0  0  0  0  0  0  0  0  0  0  0
    0.5000   -1.7150    1.6760 C   0  0  0  0  0  0  0  0  0  0  0  0
    0.8790   -0.9940    0.5870 C   0  0  0  0  0  0  0  0  0  0  0  0
    2.1780   -0.5610    0.2560 N   0  0  0  0  0  0  0  0  0  0  0  0
    3.3620   -0.8480    0.9560 C   0  0  0  0  0  0  0  0  0  0  0  0
    3.3170   -1.5560    1.9830 O   0  0  0  0  0  0  0  0  0  0  0  0
    4.6950   -0.3530    0.5440 C   0  0  0  0  0  0  0  0  0  0  0  0
    4.8750    0.4540   -0.5460 C   0  0  0  0  0  0  0  0  0  0  0  0
    6.1450    0.9140   -0.9220 C   0  0  0  0  0  0  0  0  0  0  0  0
    7.2590    0.5620   -0.1970 C   0  0  0  0  0  0  0  0  0  0  0  0
    7.0790   -0.2520    0.9020 C   0  0  0  0  0  0  0  0  0  0  0  0
    8.3420   -0.4400    1.4310 C   0  0  0  0  0  0  0  0  0  0  0  0
    9.2070    0.2350    0.6670 N   0  0  0  0  0  0  0  0  0  0  0  0
    8.5840    0.8500   -0.3220 N   0  0  0  0  0  0  0  0  0  0  0  0
    9.1870    1.6870   -1.3660 C   0  0  0  0  0  0  0  0  0  0  0  0
    5.8190   -0.7040    1.2700 C   0  0  0  0  0  0  0  0  0  0  0  0
   -0.1290   -0.6400   -0.3190 C   0  0  0  0  0  0  0  0  0  0  0  0
   -1.4430   -0.9950   -0.1340 C   0  0  0  0  0  0  0  0  0  0  0  0
   -2.5820   -0.7770   -0.8550 N   0  0  0  0  0  0  0  0  0  0  0  0
  2  1  1  6
  2  3  1  0
  2  6  1  0
  3  4  1  0
  4  5  1  0
  5  6  1  0
  6  7  1  6
  7  8  1  0
  8  9  2  0
  8 29  1  0
  9 10  1  0
 10 11  2  0
 10 28  1  0
 11 12  1  0
 12 13  2  0
 13 14  1  0
 13 27  1  0
 14 15  1  0
 15 16  2  0
 15 17  1  0
 17 18  2  0
 17 26  1  0
 18 19  1  0
 19 20  2  0
 20 21  1  0
 20 24  1  0
 21 22  1  0
 21 26  2  0
 22 23  2  0
 23 24  1  0
 24 25  1  0
 27 28  2  0
 28 29  1  0
M  CHG  1   6   1
M  END
