
     RDKit          3D

 29 32  0  0  0  0  0  0  0  0999 V2000
    0.9030    2.3690    4.8200 C   0  0  0  0  0  0  0  0  0  0  0  0
    1.0570    2.1390    3.3560 C   0  0  0  0  0  0  0  0  0  0  0  0
    1.0800    3.2380    2.5310 C   0  0  0  0  0  0  0  0  0  0  0  0
    1.2250    3.0280    1.1860 C   0  0  0  0  0  0  0  0  0  0  0  0
    1.3490    1.7640    0.5910 C   0  0  0  0  0  0  0  0  0  0  0  0
    1.3300    0.6560    1.4020 C   0  0  0  0  0  0  0  0  0  0  0  0
    1.1800    0.9120    2.7920 C   0  0  0  0  0  0  0  0  0  0  0  0
    1.4860   -0.6930    1.0540 N   0  0  0  0  0  0  0  0  0  0  0  0
    1.0660   -1.6040    0.0340 C   0  0  0  0  0  0  0  0  0  0  0  0
    2.2200   -2.4800   -0.4250 C   0  0  0  0  0  0  0  0  0  0  0  0
    3.4770   -2.4180    0.0160 C   0  0  0  0  0  0  0  0  0  0  0  0
    4.3110   -3.3710   -0.6100 N   0  0  0  0  0  0  0  0  0  0  0  0
    3.5060   -4.2750   -1.4050 C   0  0  0  0  0  0  0  0  0  0  0  0
    2.1620   -3.5630   -1.4140 C   0  0  0  0  0  0  0  0  0  0  0  0
   -0.0850   -1.7220   -0.4520 C   0  0  0  0  0  0  0  0  0  0  0  0
   -1.4930   -1.5840   -0.7760 C   0  0  0  0  0  0  0  0  0  0  0  0
   -2.0670   -1.8380   -1.9320 C   0  0  0  0  0  0  0  0  0  0  0  0
   -3.4700   -1.6250   -1.9700 C   0  0  0  0  0  0  0  0  0  0  0  0
   -3.9430   -1.2040   -0.8370 C   0  0  0  0  0  0  0  0  0  0  0  0
   -2.6950   -1.0310    0.3560 S   0  0  0  0  0  0  0  0  0  0  0  0
   -3.5640   -2.1400    1.2070 O   0  0  0  0  0  0  0  0  0  0  0  0
   -2.9750    0.6410    0.4470 C   0  0  0  0  0  0  0  0  0  0  0  0
   -1.7600    1.4500   -0.0810 C   0  0  0  0  0  0  0  0  0  0  0  0
   -1.8340    1.7790   -1.5280 C   0  0  1  0  0  0  0  0  0  0  0  0
   -2.3530    3.1550   -1.7410 C   0  0  0  0  0  0  0  0  0  0  0  0
   -0.6500    1.4250   -2.2750 N   0  0  0  0  0  0  0  0  0  0  0  0
    0.6610    1.2550   -1.8560 C   0  0  0  0  0  0  0  0  0  0  0  0
    1.3220    0.3830   -2.5800 O   0  0  0  0  0  0  0  0  0  0  0  0
    1.4390    1.8130   -0.8300 N   0  0  0  0  0  0  0  0  0  0  0  0
  1  2  1  0
  2  3  2  0
  2  7  1  0
  3  4  1  0
  4  5  2  0
  5  6  1  0
  5 29  1  0
  6  7  2  0
  6  8  1  0
  8  9  1  0
  9 10  1  0
  9 15  2  0
 10 11  2  0
 10 14  1  0
 11 12  1  0
 12 13  1  0
 13 14  1  0
 15 16  1  0
 16 17  2  0
 16 20  1  0
 17 18  1  0
 18 19  2  0
 19 20  1  0
 20 21  2  0
 20 22  1  0
 22 23  1  0
 23 24  1  0
 24 25  1  1
 24 26  1  0
 26 27  1  0
 27 28  2  0
 27 29  1  0
M  END
