
     RDKit          3D

 29 32  0  0  0  0  0  0  0  0999 V2000
    5.1040    2.4930    0.6320 C   0  0  0  0  0  0  0  0  0  0  0  0
    3.9390    1.6480    0.2800 C   0  0  0  0  0  0  0  0  0  0  0  0
    2.8380    2.1980   -0.3280 C   0  0  0  0  0  0  0  0  0  0  0  0
    1.7410    1.4030   -0.6590 C   0  0  0  0  0  0  0  0  0  0  0  0
    1.7220    0.0590   -0.3930 C   0  0  0  0  0  0  0  0  0  0  0  0
    0.5460   -0.7810   -0.7510 C   0  0  2  0  0  0  0  0  0  0  0  0
    1.1360   -1.9610   -1.3730 N   0  0  0  0  0  0  0  0  0  0  0  0
    0.8320   -3.0710   -0.5140 C   0  0  0  0  0  0  0  0  0  0  0  0
   -0.5540   -3.5230   -0.8780 C   0  0  0  0  0  0  0  0  0  0  0  0
   -1.4850   -3.2800    0.2430 C   0  0  0  0  0  0  0  0  0  0  0  0
   -2.6130   -2.6180    0.3240 C   0  0  0  0  0  0  0  0  0  0  0  0
   -3.4060   -1.8780   -0.5520 N   0  0  0  0  0  0  0  0  0  0  0  0
   -3.8200   -0.5150   -0.6290 C   0  0  0  0  0  0  0  0  0  0  0  0
   -4.9470   -0.3020   -1.3290 O   0  0  0  0  0  0  0  0  0  0  0  0
   -3.2950    0.7340   -0.1070 C   0  0  0  0  0  0  0  0  0  0  0  0
   -2.1170    1.3750   -0.4720 C   0  0  0  0  0  0  0  0  0  0  0  0
   -1.7590    2.6040    0.1310 C   0  0  0  0  0  0  0  0  0  0  0  0
   -2.5550    3.1690    1.0630 C   0  0  0  0  0  0  0  0  0  0  0  0
   -3.7710    2.5350    1.4530 C   0  0  0  0  0  0  0  0  0  0  0  0
   -4.5340    3.1610    2.3670 N   0  0  0  0  0  0  0  0  0  0  0  0
   -5.9780    2.0480    2.5380 S   0  0  0  0  0  0  0  0  0  0  0  0
   -5.3700    0.8810    1.3580 C   0  0  0  0  0  0  0  0  0  0  0  0
   -4.1210    1.3820    0.8970 C   0  0  0  0  0  0  0  0  0  0  0  0
   -1.2010    0.9890   -1.4860 N   0  0  0  0  0  0  0  0  0  0  0  0
   -0.4110   -0.1700   -1.6740 C   0  0  0  0  0  0  0  0  0  0  0  0
   -0.5720   -0.7420   -2.8140 O   0  0  0  0  0  0  0  0  0  0  0  0
    2.8370   -0.4780    0.2180 C   0  0  0  0  0  0  0  0  0  0  0  0
    3.9160    0.3030    0.5440 C   0  0  0  0  0  0  0  0  0  0  0  0
    5.0880   -0.3200    1.1980 C   0  0  0  0  0  0  0  0  0  0  0  0
  1  2  1  0
  2  3  2  0
  2 28  1  0
  3  4  1  0
  4  5  2  0
  6  5  1  6
  5 27  1  0
  6  7  1  0
  6 25  1  0
  7  8  1  0
  8  9  1  0
  9 10  1  0
 10 11  2  0
 11 12  1  0
 12 13  1  0
 13 14  2  0
 13 15  1  0
 15 16  2  0
 15 23  1  0
 16 17  1  0
 16 24  1  0
 17 18  2  0
 18 19  1  0
 19 20  2  0
 19 23  1  0
 20 21  1  0
 21 22  1  0
 22 23  2  0
 24 25  1  0
 25 26  2  0
 27 28  2  0
 28 29  1  0
M  END
