
     RDKit          3D

 20 21  0  0  0  0  0  0  0  0999 V2000
   -5.4460    0.2850    0.1920 O   0  0  0  0  0  0  0  0  0  0  0  0
   -4.2170    0.5740    0.3880 C   0  0  0  0  0  0  0  0  0  0  0  0
   -3.9150    1.8990    0.7720 N   0  0  0  0  0  0  0  0  0  0  0  0
   -4.9160    2.8070    0.9160 O   0  0  0  0  0  0  0  0  0  0  0  0
   -3.2370   -0.4820    0.2010 C   0  0  0  0  0  0  0  0  0  0  0  0
   -3.6320   -1.7870    0.0220 C   0  0  0  0  0  0  0  0  0  0  0  0
   -2.6820   -2.7670   -0.1570 C   0  0  0  0  0  0  0  0  0  0  0  0
   -1.3450   -2.4700   -0.1610 C   0  0  0  0  0  0  0  0  0  0  0  0
   -0.1820   -3.7490   -0.3920 Cl  0  0  0  0  0  0  0  0  0  0  0  0
   -0.9060   -1.1600    0.0170 C   0  0  0  0  0  0  0  0  0  0  0  0
    0.4690   -0.8590    0.0120 N   0  0  0  0  0  0  0  0  0  0  0  0
    1.0940    0.3780    0.1730 C   0  0  0  0  0  0  0  0  0  0  0  0
    0.4160    1.4220    0.3490 O   0  0  0  0  0  0  0  0  0  0  0  0
    2.5530    0.4730    0.1370 C   0  0  0  0  0  0  0  0  0  0  0  0
    3.3920   -0.6040    0.2540 C   0  0  0  0  0  0  0  0  0  0  0  0
    4.7830   -0.4990    0.2120 C   0  0  0  0  0  0  0  0  0  0  0  0
    5.3460    0.7470    0.0440 C   0  0  0  0  0  0  0  0  0  0  0  0
    4.5380    1.8550   -0.0790 C   0  0  0  0  0  0  0  0  0  0  0  0
    3.1800    1.7020   -0.0310 C   0  0  0  0  0  0  0  0  0  0  0  0
   -1.8620   -0.2000    0.1930 C   0  0  0  0  0  0  0  0  0  0  0  0
  1  2  2  0
  2  3  1  0
  2  5  1  0
  3  4  1  0
  5  6  2  0
  5 20  1  0
  6  7  1  0
  7  8  2  0
  8  9  1  0
  8 10  1  0
 10 11  1  0
 10 20  2  0
 11 12  1  0
 12 13  2  0
 12 14  1  0
 14 15  2  0
 14 19  1  0
 15 16  1  0
 16 17  2  0
 17 18  1  0
 18 19  2  0
M  END
