
     RDKit          3D

 20 21  0  0  0  0  0  0  0  0999 V2000
   -0.8170   -2.9440    0.5910 C   0  0  0  0  0  0  0  0  0  0  0  0
   -0.8900   -1.6450    1.3230 C   0  0  0  0  0  0  0  0  0  0  0  0
   -1.1320   -0.4780    0.4490 C   0  0  0  0  0  0  0  0  0  0  0  0
   -0.2600    0.1760   -0.3780 C   0  0  0  0  0  0  0  0  0  0  0  0
    1.1630   -0.1670   -0.5740 C   0  0  0  0  0  0  0  0  0  0  0  0
    1.6520   -1.1360    0.0430 O   0  0  0  0  0  0  0  0  0  0  0  0
    1.9930    0.5730   -1.4450 N   0  0  0  0  0  0  0  0  0  0  0  0
    3.3910    0.2870   -1.6810 C   0  0  0  0  0  0  0  0  0  0  0  0
    4.1920    0.3680   -0.4320 C   0  0  0  0  0  0  0  0  0  0  0  0
    3.6720    0.6590    0.6730 O   0  0  0  0  0  0  0  0  0  0  0  0
    5.5580    0.1220   -0.4460 O   0  0  0  0  0  0  0  0  0  0  0  0
    6.3620    0.1870    0.7170 C   0  0  0  0  0  0  0  0  0  0  0  0
   -0.8990    1.1840   -0.9920 N   0  0  0  0  0  0  0  0  0  0  0  0
   -2.1930    1.2260   -0.5960 C   0  0  0  0  0  0  0  0  0  0  0  0
   -2.3610    0.2110    0.2930 C   0  0  0  0  0  0  0  0  0  0  0  0
   -3.6300   -0.0740    0.9470 C   0  0  0  0  0  0  0  0  0  0  0  0
   -4.7420    0.8000    0.5960 C   0  0  0  0  0  0  0  0  0  0  0  0
   -4.4830    1.8720   -0.3690 C   0  0  0  0  0  0  0  0  0  0  0  0
   -5.8710    2.9100   -0.7610 Cl  0  0  0  0  0  0  0  0  0  0  0  0
   -3.3170    2.0860   -0.9300 C   0  0  0  0  0  0  0  0  0  0  0  0
  1  2  1  0
  2  3  1  0
  3  4  2  0
  3 15  1  0
  4  5  1  0
  4 13  1  0
  5  6  2  0
  5  7  1  0
  7  8  1  0
  8  9  1  0
  9 10  2  0
  9 11  1  0
 11 12  1  0
 13 14  1  0
 14 15  2  0
 14 20  1  0
 15 16  1  0
 16 17  1  0
 17 18  1  0
 18 19  1  0
 18 20  2  0
M  END
