
     RDKit          3D

 20 21  0  0  0  0  0  0  0  0999 V2000
    1.2820    2.3650   -0.2740 O   0  0  0  0  0  0  0  0  0  0  0  0
    0.5960    1.2890   -0.2160 C   0  0  0  0  0  0  0  0  0  0  0  0
   -0.8870    1.4060   -0.2820 C   0  0  0  0  0  0  0  0  0  0  0  0
   -1.7090    0.4170   -0.2360 C   0  0  0  0  0  0  0  0  0  0  0  0
   -3.1490    0.3780   -0.2880 C   0  0  0  0  0  0  0  0  0  0  0  0
   -3.7700   -0.8760   -0.2140 C   0  0  0  0  0  0  0  0  0  0  0  0
   -3.0870   -2.0500   -0.0980 O   0  0  0  0  0  0  0  0  0  0  0  0
   -5.1590   -0.9140   -0.2640 C   0  0  0  0  0  0  0  0  0  0  0  0
   -5.8990    0.1880   -0.3770 N   0  0  0  0  0  0  0  0  0  0  0  0
   -5.3510    1.4100   -0.4510 C   0  0  0  0  0  0  0  0  0  0  0  0
   -3.9670    1.4800   -0.4040 C   0  0  0  0  0  0  0  0  0  0  0  0
   -3.3190    3.1220   -0.5060 Cl  0  0  0  0  0  0  0  0  0  0  0  0
    1.2750    0.0780   -0.0970 N   0  0  0  0  0  0  0  0  0  0  0  0
    2.6830   -0.1130   -0.0280 C   0  0  0  0  0  0  0  0  0  0  0  0
    3.6020    0.8800   -0.0700 C   0  0  0  0  0  0  0  0  0  0  0  0
    4.9820    0.6460    0.0010 C   0  0  0  0  0  0  0  0  0  0  0  0
    5.4580   -0.6400    0.1180 C   0  0  0  0  0  0  0  0  0  0  0  0
    4.5680   -1.6600    0.1630 C   0  0  0  0  0  0  0  0  0  0  0  0
    3.1840   -1.4070    0.0910 C   0  0  0  0  0  0  0  0  0  0  0  0
    2.3500   -2.4810    0.1420 O   0  0  0  0  0  0  0  0  0  0  0  0
  1  2  2  0
  2  3  1  0
  2 13  1  0
  3  4  2  3
  4  5  1  0
  5  6  2  0
  5 11  1  0
  6  7  1  0
  6  8  1  0
  8  9  2  0
  9 10  1  0
 10 11  2  0
 11 12  1  0
 13 14  1  0
 14 15  2  0
 14 19  1  0
 15 16  1  0
 16 17  2  0
 17 18  1  0
 18 19  2  0
 19 20  1  0
M  END
