
     RDKit          3D

 20 21  0  0  0  0  0  0  0  0999 V2000
    4.8600   -0.8010    0.4670 C   0  0  0  0  0  0  0  0  0  0  0  0
    3.8370    0.1540    0.8740 C   0  0  0  0  0  0  0  0  0  0  0  0
    2.5690    0.2330    0.7510 C   0  0  0  0  0  0  0  0  0  0  0  0
    2.0560    1.4650    1.3830 O   0  0  0  0  0  0  0  0  0  0  0  0
    2.3150    2.6560    0.6570 C   0  0  0  0  0  0  0  0  0  0  0  0
    1.5340   -0.5670    0.1580 C   0  0  0  0  0  0  0  0  0  0  0  0
    0.1950   -0.1320    0.2130 C   0  0  0  0  0  0  0  0  0  0  0  0
   -0.8420   -0.8420   -0.3270 C   0  0  0  0  0  0  0  0  0  0  0  0
   -2.2270   -0.3860   -0.2670 C   0  0  0  0  0  0  0  0  0  0  0  0
   -2.6180    0.7820    0.3280 C   0  0  0  0  0  0  0  0  0  0  0  0
   -3.9680    1.1680    0.3550 C   0  0  0  0  0  0  0  0  0  0  0  0
   -4.9430    0.3830   -0.2190 C   0  0  0  0  0  0  0  0  0  0  0  0
   -6.2910    0.7740   -0.1900 O   0  0  0  0  0  0  0  0  0  0  0  0
   -4.5500   -0.7930   -0.8180 C   0  0  0  0  0  0  0  0  0  0  0  0
   -5.7870   -1.7960   -1.5490 Cl  0  0  0  0  0  0  0  0  0  0  0  0
   -3.2260   -1.1720   -0.8440 C   0  0  0  0  0  0  0  0  0  0  0  0
   -0.5230   -2.0030   -0.9280 N   0  0  0  0  0  0  0  0  0  0  0  0
    0.7070   -2.4500   -1.0050 N   0  0  0  0  0  0  0  0  0  0  0  0
    1.7430   -1.7530   -0.4720 C   0  0  0  0  0  0  0  0  0  0  0  0
    2.8690   -2.2880   -0.6120 O   0  0  0  0  0  0  0  0  0  0  0  0
  1  2  1  0
  2  3  2  3
  3  4  1  0
  3  6  1  0
  4  5  1  0
  6  7  2  0
  6 19  1  0
  7  8  1  0
  8  9  1  0
  8 17  2  0
  9 10  2  0
  9 16  1  0
 10 11  1  0
 11 12  2  0
 12 13  1  0
 12 14  1  0
 14 15  1  0
 14 16  2  0
 17 18  1  0
 18 19  1  0
 19 20  2  0
M  END
