
     RDKit          3D

 20 21  0  0  0  0  0  0  0  0999 V2000
    5.7540   -0.5890    1.1410 N   0  0  0  0  0  0  0  0  0  0  0  0
    4.6640    0.0270    0.4790 C   0  0  0  0  0  0  0  0  0  0  0  0
    4.9050    0.9940   -0.4670 C   0  0  0  0  0  0  0  0  0  0  0  0
    3.8560    1.5970   -1.1120 C   0  0  0  0  0  0  0  0  0  0  0  0
    2.5380    1.2590   -0.8390 C   0  0  0  0  0  0  0  0  0  0  0  0
    2.2860    0.3000    0.0980 C   0  0  0  0  0  0  0  0  0  0  0  0
    1.0010   -0.1430    0.4560 N   0  0  0  0  0  0  0  0  0  0  0  0
   -0.2190    0.1710   -0.2160 C   0  0  0  0  0  0  0  0  0  0  0  0
   -0.2100    0.8850   -1.2040 O   0  0  0  0  0  0  0  0  0  0  0  0
   -1.4480   -0.4100    0.3520 C   0  0  0  0  0  0  0  0  0  0  0  0
   -2.7230   -0.1250   -0.2900 C   0  0  0  0  0  0  0  0  0  0  0  0
   -2.9540    0.6110   -1.3450 C   0  0  0  0  0  0  0  0  0  0  0  0
   -4.2950    0.8180   -1.8920 C   0  0  0  0  0  0  0  0  0  0  0  0
   -5.3520    0.2700   -1.3500 C   0  0  0  0  0  0  0  0  0  0  0  0
   -5.1620   -0.5180   -0.2320 O   0  0  0  0  0  0  0  0  0  0  0  0
   -3.9090   -0.7540    0.3380 C   0  0  0  0  0  0  0  0  0  0  0  0
   -3.8800   -1.5210    1.3940 C   0  0  0  0  0  0  0  0  0  0  0  0
   -2.7480   -1.8730    2.0980 O   0  0  0  0  0  0  0  0  0  0  0  0
   -5.4050   -2.1980    2.0230 Cl  0  0  0  0  0  0  0  0  0  0  0  0
    3.3780   -0.3010    0.7450 C   0  0  0  0  0  0  0  0  0  0  0  0
  1  2  1  0
  2  3  2  0
  2 20  1  0
  3  4  1  0
  4  5  2  0
  5  6  1  0
  6  7  1  0
  6 20  2  0
  7  8  1  0
  8  9  2  0
  8 10  1  0
 10 11  1  0
 11 12  2  0
 11 16  1  0
 12 13  1  0
 13 14  2  0
 14 15  1  0
 15 16  1  0
 16 17  2  3
 17 18  1  0
 17 19  1  0
M  END
