
     RDKit          3D

 20 21  0  0  0  0  0  0  0  0999 V2000
   -1.9630    0.1990   -2.6160 C   0  0  0  0  0  0  0  0  0  0  0  0
   -1.2310    0.2920   -1.4120 O   0  0  0  0  0  0  0  0  0  0  0  0
   -1.9410    0.2900   -0.2190 C   0  0  0  0  0  0  0  0  0  0  0  0
   -3.3250    0.2000   -0.1870 C   0  0  0  0  0  0  0  0  0  0  0  0
   -4.0330    0.1970    0.9940 C   0  0  0  0  0  0  0  0  0  0  0  0
   -5.4720    0.1030    1.0080 N   0  0  0  0  0  0  0  0  0  0  0  0
   -3.3090    0.2890    2.1670 C   0  0  0  0  0  0  0  0  0  0  0  0
   -1.9320    0.3800    2.1820 C   0  0  0  0  0  0  0  0  0  0  0  0
   -1.2440    0.3800    0.9830 C   0  0  0  0  0  0  0  0  0  0  0  0
    0.1650    0.4700    0.9210 N   0  0  0  0  0  0  0  0  0  0  0  0
    0.8930   -0.4520    0.3960 C   0  0  0  0  0  0  0  0  0  0  0  0
    2.3310   -0.3470    0.3390 C   0  0  0  0  0  0  0  0  0  0  0  0
    2.9770    0.7830    0.8640 C   0  0  0  0  0  0  0  0  0  0  0  0
    4.3440    0.8980    0.8170 C   0  0  0  0  0  0  0  0  0  0  0  0
    5.0050    2.0190    1.3360 O   0  0  0  0  0  0  0  0  0  0  0  0
    5.0820   -0.1090    0.2490 C   0  0  0  0  0  0  0  0  0  0  0  0
    4.4790   -1.2290   -0.2740 C   0  0  0  0  0  0  0  0  0  0  0  0
    5.4410   -2.4800   -0.9840 Cl  0  0  0  0  0  0  0  0  0  0  0  0
    3.0870   -1.3550   -0.2320 C   0  0  0  0  0  0  0  0  0  0  0  0
    2.5750   -2.5070   -0.7780 O   0  0  0  0  0  0  0  0  0  0  0  0
  1  2  1  0
  2  3  1  0
  3  4  2  0
  3  9  1  0
  4  5  1  0
  5  6  1  0
  5  7  2  0
  7  8  1  0
  8  9  2  0
  9 10  1  0
 10 11  2  3
 11 12  1  0
 12 13  2  0
 12 19  1  0
 13 14  1  0
 14 15  1  0
 14 16  2  0
 16 17  1  0
 17 18  1  0
 17 19  2  0
 19 20  1  0
M  END
