
     RDKit          3D

 20 21  0  0  0  0  0  0  0  0999 V2000
   -2.2120    2.9840    1.0990 C   0  0  0  0  0  0  0  0  0  0  0  0
   -1.4870    1.9220    0.5120 O   0  0  0  0  0  0  0  0  0  0  0  0
   -2.1450    0.8080    0.0180 C   0  0  0  0  0  0  0  0  0  0  0  0
   -3.5170    0.6830    0.0720 C   0  0  0  0  0  0  0  0  0  0  0  0
   -4.0980   -0.4600   -0.4440 C   0  0  0  0  0  0  0  0  0  0  0  0
   -3.3660   -1.4850   -1.0120 C   0  0  0  0  0  0  0  0  0  0  0  0
   -4.0020   -2.6580   -1.5380 N   0  0  0  0  0  0  0  0  0  0  0  0
   -1.9960   -1.3390   -1.0560 C   0  0  0  0  0  0  0  0  0  0  0  0
   -1.3890   -0.1980   -0.5440 C   0  0  0  0  0  0  0  0  0  0  0  0
    0.0260   -0.1020   -0.6160 N   0  0  0  0  0  0  0  0  0  0  0  0
    0.7540   -0.3530    0.4380 C   0  0  0  0  0  0  0  0  0  0  0  0
    2.1870   -0.2520    0.3520 C   0  0  0  0  0  0  0  0  0  0  0  0
    2.7900    0.1160   -0.8620 C   0  0  0  0  0  0  0  0  0  0  0  0
    4.1510    0.2310   -1.0110 C   0  0  0  0  0  0  0  0  0  0  0  0
    4.7050    0.5970   -2.2300 O   0  0  0  0  0  0  0  0  0  0  0  0
    4.9190   -0.0360    0.1040 C   0  0  0  0  0  0  0  0  0  0  0  0
    6.6570    0.1060   -0.0680 Cl  0  0  0  0  0  0  0  0  0  0  0  0
    4.3560   -0.3970    1.3030 C   0  0  0  0  0  0  0  0  0  0  0  0
    2.9660   -0.5140    1.4510 C   0  0  0  0  0  0  0  0  0  0  0  0
    2.4650   -0.8810    2.6820 O   0  0  0  0  0  0  0  0  0  0  0  0
  1  2  1  0
  2  3  1  0
  3  4  2  0
  3  9  1  0
  4  5  1  0
  5  6  2  0
  6  7  1  0
  6  8  1  0
  8  9  2  0
  9 10  1  0
 10 11  2  3
 11 12  1  0
 12 13  2  0
 12 19  1  0
 13 14  1  0
 14 15  1  0
 14 16  2  0
 16 17  1  0
 16 18  1  0
 18 19  2  0
 19 20  1  0
M  END
