
     RDKit          3D

 35 39  0  0  0  0  0  0  0  0999 V2000
   -5.2250   -0.3280   -1.1060 C   0  0  0  0  0  0  0  0  0  0  0  0
   -4.2230   -0.9480   -0.1990 C   0  0  0  0  0  0  0  0  0  0  0  0
   -3.0340   -1.3570   -0.9040 O   0  0  0  0  0  0  0  0  0  0  0  0
   -2.0450   -2.0030   -0.1610 C   0  0  0  0  0  0  0  0  0  0  0  0
   -2.3040   -3.3300    0.1810 C   0  0  0  0  0  0  0  0  0  0  0  0
   -3.4960   -3.8770   -0.2490 O   0  0  0  0  0  0  0  0  0  0  0  0
   -3.7750   -5.2130    0.0830 C   0  0  0  0  0  0  0  0  0  0  0  0
   -1.3880   -4.0530    0.9210 C   0  0  0  0  0  0  0  0  0  0  0  0
   -0.2100   -3.4870    1.3340 C   0  0  0  0  0  0  0  0  0  0  0  0
    0.0510   -2.1870    0.9990 C   0  0  0  0  0  0  0  0  0  0  0  0
   -0.8950   -1.4320    0.2290 C   0  0  0  0  0  0  0  0  0  0  0  0
   -0.6720   -0.1170   -0.3100 C   0  0  0  0  0  0  0  0  0  0  0  0
   -1.7160    0.6360   -0.7520 O   0  0  0  0  0  0  0  0  0  0  0  0
   -2.2540    1.6760    0.0730 C   0  0  0  0  0  0  0  0  0  0  0  0
   -1.6910    1.7870    1.3240 C   0  0  0  0  0  0  0  0  0  0  0  0
   -2.1000    2.7310    2.2490 C   0  0  0  0  0  0  0  0  0  0  0  0
   -3.1210    3.5770    1.8550 C   0  0  0  0  0  0  0  0  0  0  0  0
   -3.7020    4.8000    2.9680 Cl  0  0  0  0  0  0  0  0  0  0  0  0
   -3.6840    3.4690    0.6070 C   0  0  0  0  0  0  0  0  0  0  0  0
   -3.2500    2.5030   -0.3140 C   0  0  0  0  0  0  0  0  0  0  0  0
   -3.7920    2.4430   -1.6110 N   0  0  0  0  0  0  0  0  0  0  0  0
    0.5090    0.5280   -0.4490 C   0  0  0  0  0  0  0  0  0  0  0  0
    0.4930    1.8940   -1.0560 C   0  0  0  0  0  0  0  0  0  0  0  0
    1.8430    0.0980   -0.0310 C   0  0  0  0  0  0  0  0  0  0  0  0
    2.8560    0.8490   -0.5860 C   0  0  0  0  0  0  0  0  0  0  0  0
    4.1650    0.5490   -0.2380 C   0  0  0  0  0  0  0  0  0  0  0  0
    4.5280   -0.4490    0.6250 C   0  0  0  0  0  0  0  0  0  0  0  0
    3.5070   -1.2030    1.1810 C   0  0  0  0  0  0  0  0  0  0  0  0
    2.1960   -0.9320    0.8580 C   0  0  0  0  0  0  0  0  0  0  0  0
    1.2780   -1.7620    1.4880 O   0  0  0  0  0  0  0  0  0  0  0  0
    6.0220   -0.5110    0.8020 C   0  0  0  0  0  0  0  0  0  0  0  0
    6.4090    0.8910    0.3110 C   0  0  0  0  0  0  0  0  0  0  0  0
    5.3920    1.2360   -0.7210 C   0  0  2  0  0  0  0  0  0  0  0  0
    5.1650    2.7240   -0.8720 C   0  0  0  0  0  0  0  0  0  0  0  0
    5.7400    0.6840   -1.9770 O   0  0  0  0  0  0  0  0  0  0  0  0
  1  2  1  0
  2  3  1  0
  3  4  1  0
  4  5  2  0
  4 11  1  0
  5  6  1  0
  5  8  1  0
  6  7  1  0
  8  9  2  0
  9 10  1  0
 10 11  2  0
 10 30  1  0
 11 12  1  0
 12 13  1  0
 12 22  2  0
 13 14  1  0
 14 15  2  0
 14 20  1  0
 15 16  1  0
 16 17  2  0
 17 18  1  0
 17 19  1  0
 19 20  2  0
 20 21  1  0
 22 23  1  0
 22 24  1  0
 24 25  2  0
 24 29  1  0
 25 26  1  0
 26 27  2  0
 26 33  1  0
 27 28  1  0
 27 31  1  0
 28 29  2  0
 29 30  1  0
 31 32  1  0
 32 33  1  0
 33 34  1  6
 33 35  1  0
M  END
