
     RDKit          3D

 36 39  0  0  0  0  0  0  0  0999 V2000
   -9.2050    0.3820   -1.6860 C   0  0  0  0  0  0  0  0  0  0  0  0
   -7.9680    0.0340   -1.3900 C   0  0  0  0  0  0  0  0  0  0  0  0
   -7.4150   -1.0760   -1.9060 O   0  0  0  0  0  0  0  0  0  0  0  0
   -6.2100   -1.2530   -1.5070 C   0  0  0  0  0  0  0  0  0  0  0  0
   -5.2620   -2.2490   -1.7760 C   0  0  0  0  0  0  0  0  0  0  0  0
   -4.0160   -2.2190   -1.2200 C   0  0  0  0  0  0  0  0  0  0  0  0
   -3.6440   -1.2180   -0.3800 C   0  0  0  0  0  0  0  0  0  0  0  0
   -2.4820   -0.9140    0.3280 C   0  0  0  0  0  0  0  0  0  0  0  0
   -1.2630   -1.7390    0.2740 C   0  0  0  0  0  0  0  0  0  0  0  0
   -0.2300   -1.2540    1.0810 O   0  0  0  0  0  0  0  0  0  0  0  0
   -0.3510   -1.1410    2.4390 C   0  0  0  0  0  0  0  0  0  0  0  0
   -1.5100   -1.5360    2.8840 O   0  0  0  0  0  0  0  0  0  0  0  0
    0.5540   -0.6650    3.4200 C   0  0  0  0  0  0  0  0  0  0  0  0
    1.7680   -0.2660    3.3200 C   0  0  0  0  0  0  0  0  0  0  0  0
    2.6900   -0.1560    2.2290 C   0  0  0  0  0  0  0  0  0  0  0  0
    3.5240    0.9700    2.1790 C   0  0  0  0  0  0  0  0  0  0  0  0
    4.5130    1.1080    1.2400 C   0  0  0  0  0  0  0  0  0  0  0  0
    5.3560    2.3590    1.3630 C   0  0  0  0  0  0  0  0  0  0  0  0
    4.7420    0.1480    0.2920 C   0  0  0  0  0  0  0  0  0  0  0  0
    5.7360    0.2640   -0.7580 C   0  0  0  0  0  0  0  0  0  0  0  0
    6.2650   -0.8070   -1.2380 O   0  0  0  0  0  0  0  0  0  0  0  0
    6.1650    1.4940   -1.2980 N   0  0  0  0  0  0  0  0  0  0  0  0
    7.1790    1.4520   -2.3420 C   0  0  0  0  0  0  0  0  0  0  0  0
    8.4510    0.8090   -1.8750 C   0  0  0  0  0  0  0  0  0  0  0  0
    3.9260   -0.9950    0.3150 C   0  0  0  0  0  0  0  0  0  0  0  0
    4.1720   -2.0260   -0.7510 C   0  0  0  0  0  0  0  0  0  0  0  0
    2.9390   -1.1260    1.2640 C   0  0  0  0  0  0  0  0  0  0  0  0
    2.1810   -2.2660    1.2670 O   0  0  0  0  0  0  0  0  0  0  0  0
   -2.7800    0.2470    0.9880 C   0  0  0  0  0  0  0  0  0  0  0  0
   -4.0010    0.6060    0.7060 O   0  0  0  0  0  0  0  0  0  0  0  0
   -4.5790   -0.2150   -0.1010 C   0  0  0  0  0  0  0  0  0  0  0  0
   -5.8490   -0.2310   -0.6580 C   0  0  0  0  0  0  0  0  0  0  0  0
   -6.9930    0.5890   -0.5930 C   0  0  0  0  0  0  0  0  0  0  0  0
   -7.0860    1.6860    0.1110 C   0  0  0  0  0  0  0  0  0  0  0  0
   -8.3240    2.5020    0.1320 C   0  0  0  0  0  0  0  0  0  0  0  0
   -5.7650    2.2950    1.0930 Cl  0  0  0  0  0  0  0  0  0  0  0  0
  1  2  2  0
  2  3  1  0
  2 33  1  0
  3  4  1  0
  4  5  2  0
  4 32  1  0
  5  6  1  0
  6  7  2  0
  7  8  1  0
  7 31  1  0
  8  9  1  0
  8 29  2  0
  9 10  1  0
 10 11  1  0
 11 12  2  0
 11 13  1  0
 13 14  2  3
 14 15  1  0
 15 16  2  0
 15 27  1  0
 16 17  1  0
 17 18  1  0
 17 19  2  0
 19 20  1  0
 19 25  1  0
 20 21  2  0
 20 22  1  0
 22 23  1  0
 23 24  1  0
 25 26  1  0
 25 27  2  0
 27 28  1  0
 29 30  1  0
 30 31  1  0
 31 32  2  0
 32 33  1  0
 33 34  2  3
 34 35  1  0
 34 36  1  0
M  END
