
     RDKit          3D

 36 40  0  0  0  0  0  0  0  0999 V2000
    8.1980    0.4810   -2.2820 C   0  0  0  0  0  0  0  0  0  0  0  0
    7.3980   -0.6850   -1.9690 C   0  0  0  0  0  0  0  0  0  0  0  0
    7.5900   -1.7710   -2.6450 O   0  0  0  0  0  0  0  0  0  0  0  0
    6.3640   -0.8500   -0.9540 C   0  0  0  0  0  0  0  0  0  0  0  0
    4.9910   -0.7250   -1.2440 C   0  0  0  0  0  0  0  0  0  0  0  0
    4.0430   -1.0230   -0.3150 C   0  0  0  0  0  0  0  0  0  0  0  0
    2.5880   -1.0640   -0.5770 C   0  0  0  0  0  0  0  0  0  0  0  0
    2.0520    0.2820   -0.4640 O   0  0  0  0  0  0  0  0  0  0  0  0
    0.6670    0.3380   -0.4290 C   0  0  0  0  0  0  0  0  0  0  0  0
    0.0720   -0.7660   -0.6000 O   0  0  0  0  0  0  0  0  0  0  0  0
   -0.1400    1.5370   -0.1670 C   0  0  0  0  0  0  0  0  0  0  0  0
    0.4310    2.7890   -0.1560 O   0  0  0  0  0  0  0  0  0  0  0  0
   -1.4150    1.4230    0.0920 C   0  0  0  0  0  0  0  0  0  0  0  0
   -2.1960    0.2120    0.1650 C   0  0  0  0  0  0  0  0  0  0  0  0
   -1.9180   -0.9420    0.8690 C   0  0  0  0  0  0  0  0  0  0  0  0
   -2.7400   -2.0520    0.8840 C   0  0  0  0  0  0  0  0  0  0  0  0
   -3.9090   -2.0340    0.1700 C   0  0  0  0  0  0  0  0  0  0  0  0
   -4.2630   -0.8980   -0.5630 C   0  0  0  0  0  0  0  0  0  0  0  0
   -3.4170    0.1670   -0.5460 C   0  0  0  0  0  0  0  0  0  0  0  0
   -5.5880   -0.8300   -1.2840 C   0  0  0  0  0  0  0  0  0  0  0  0
   -6.5600   -1.5560   -0.3470 C   0  0  0  0  0  0  0  0  0  0  0  0
   -6.1190   -3.0200   -0.3970 C   0  0  0  0  0  0  0  0  0  0  0  0
   -4.7710   -3.1570    0.1150 N   0  0  0  0  0  0  0  0  0  0  0  0
   -2.2200    2.6530    0.3730 C   0  0  0  0  0  0  0  0  0  0  0  0
   -2.0840    3.7740   -0.3740 C   0  0  0  0  0  0  0  0  0  0  0  0
   -2.8770    4.9020   -0.1150 C   0  0  0  0  0  0  0  0  0  0  0  0
   -3.7980    4.8640    0.9090 C   0  0  0  0  0  0  0  0  0  0  0  0
   -3.9350    3.7250    1.6690 C   0  0  0  0  0  0  0  0  0  0  0  0
   -3.1270    2.6010    1.3920 C   0  0  0  0  0  0  0  0  0  0  0  0
   -3.2940    1.1660    2.3660 Cl  0  0  0  0  0  0  0  0  0  0  0  0
    4.4260   -1.4670    0.9730 C   0  0  0  0  0  0  0  0  0  0  0  0
    5.7510   -1.5960    1.2930 C   0  0  0  0  0  0  0  0  0  0  0  0
    6.6800   -1.2910    0.3380 C   0  0  0  0  0  0  0  0  0  0  0  0
    5.7500   -2.0370    2.6390 O   0  0  0  0  0  0  0  0  0  0  0  0
    4.5390   -1.4440    3.1930 C   0  0  0  0  0  0  0  0  0  0  0  0
    3.6480   -1.8210    2.0920 O   0  0  0  0  0  0  0  0  0  0  0  0
  1  2  1  0
  2  3  2  0
  2  4  1  0
  4  5  2  0
  4 33  1  0
  5  6  1  0
  6  7  1  0
  6 31  2  0
  7  8  1  0
  8  9  1  0
  9 10  2  0
  9 11  1  0
 11 12  1  0
 11 13  2  3
 13 14  1  0
 13 24  1  0
 14 15  2  0
 14 19  1  0
 15 16  1  0
 16 17  2  0
 17 18  1  0
 17 23  1  0
 18 19  2  0
 18 20  1  0
 20 21  1  0
 21 22  1  0
 22 23  1  0
 24 25  2  0
 24 29  1  0
 25 26  1  0
 26 27  2  0
 27 28  1  0
 28 29  2  0
 29 30  1  0
 31 32  1  0
 31 36  1  0
 32 33  2  0
 32 34  1  0
 34 35  1  0
 35 36  1  0
M  END
