
     RDKit          3D

 36 40  0  0  0  0  0  0  0  0999 V2000
    0.1140   -4.2900    1.7490 C   0  0  0  0  0  0  0  0  0  0  0  0
    0.1190   -2.9580    2.1900 O   0  0  0  0  0  0  0  0  0  0  0  0
    0.0260   -1.9420    1.1480 C   0  0  0  0  0  0  0  0  0  0  0  0
   -1.0810   -1.2500    1.2940 C   0  0  0  0  0  0  0  0  0  0  0  0
   -2.1980   -1.7030    2.6930 Cl  0  0  0  0  0  0  0  0  0  0  0  0
   -1.6650   -0.1420    0.5580 C   0  0  0  0  0  0  0  0  0  0  0  0
   -1.1550    1.1330    0.4320 C   0  0  0  0  0  0  0  0  0  0  0  0
   -1.8420    2.1270   -0.2480 C   0  0  0  0  0  0  0  0  0  0  0  0
   -3.0630    1.8990   -0.8270 C   0  0  0  0  0  0  0  0  0  0  0  0
   -3.7870    2.8540   -1.5120 O   0  0  0  0  0  0  0  0  0  0  0  0
   -3.2230    4.1490   -1.6180 C   0  0  0  0  0  0  0  0  0  0  0  0
   -3.6050    0.6410   -0.7220 C   0  0  0  0  0  0  0  0  0  0  0  0
   -4.7390    0.1180   -1.1590 O   0  0  0  0  0  0  0  0  0  0  0  0
   -4.8330   -1.1350   -0.8210 C   0  0  0  0  0  0  0  0  0  0  0  0
   -5.9380   -2.1000   -1.1040 C   0  0  0  0  0  0  0  0  0  0  0  0
   -6.9400   -1.4580   -1.8290 O   0  0  0  0  0  0  0  0  0  0  0  0
   -3.7050   -1.5130   -0.1090 C   0  0  0  0  0  0  0  0  0  0  0  0
   -3.4460   -2.8920    0.3510 C   0  0  0  0  0  0  0  0  0  0  0  0
   -2.9310   -0.3790   -0.0460 C   0  0  0  0  0  0  0  0  0  0  0  0
    0.1270    1.6090    1.0500 C   0  0  0  0  0  0  0  0  0  0  0  0
    1.0720    1.9830   -0.0230 C   0  0  0  0  0  0  0  0  0  0  0  0
    2.3030    2.6390    0.5030 C   0  0  0  0  0  0  0  0  0  0  0  0
    3.4550    2.0240    0.7100 C   0  0  0  0  0  0  0  0  0  0  0  0
    4.4580    2.9950    1.2350 C   0  0  0  0  0  0  0  0  0  0  0  0
    3.6260    4.1440    1.7920 C   0  0  0  0  0  0  0  0  0  0  0  0
    2.4500    4.0480    0.8940 C   0  0  0  0  0  0  0  0  0  0  0  0
    1.7380    5.0130    0.5550 O   0  0  0  0  0  0  0  0  0  0  0  0
    3.6120    0.6160    0.4100 N   0  0  0  0  0  0  0  0  0  0  0  0
    3.0360   -0.5140    1.0250 C   0  0  0  0  0  0  0  0  0  0  0  0
    2.3260   -1.4390    0.1170 C   0  0  0  0  0  0  0  0  0  0  0  0
    3.1050   -1.8290   -1.1050 C   0  0  0  0  0  0  0  0  0  0  0  0
    4.4580   -1.7440   -1.2160 C   0  0  0  0  0  0  0  0  0  0  0  0
    4.8040   -2.1850   -2.4960 C   0  0  0  0  0  0  0  0  0  0  0  0
    3.6040   -2.5170   -3.0860 C   0  0  0  0  0  0  0  0  0  0  0  0
    2.6300   -2.2950   -2.2410 O   0  0  0  0  0  0  0  0  0  0  0  0
    1.1250   -1.9600    0.2430 C   0  0  0  0  0  0  0  0  0  0  0  0
  1  2  1  0
  2  3  1  0
  3  4  2  0
  3 36  1  0
  4  5  1  0
  4  6  1  0
  6  7  2  0
  6 19  1  0
  7  8  1  0
  7 20  1  0
  8  9  2  0
  9 10  1  0
  9 12  1  0
 10 11  1  0
 12 13  1  0
 12 19  2  0
 13 14  1  0
 14 15  1  0
 14 17  2  0
 15 16  1  0
 17 18  1  0
 17 19  1  0
 20 21  1  0
 21 22  1  0
 22 23  2  0
 22 26  1  0
 23 24  1  0
 23 28  1  0
 24 25  1  0
 25 26  1  0
 26 27  2  0
 28 29  1  0
 29 30  1  0
 30 31  1  0
 30 36  2  0
 31 32  2  0
 31 35  1  0
 32 33  1  0
 33 34  2  0
 34 35  1  0
M  END
