
     RDKit          3D

 36 40  0  0  0  0  0  0  0  0999 V2000
    1.8260   -2.0670   -2.0920 C   0  0  0  0  0  0  0  0  0  0  0  0
    2.1400   -2.5020   -0.7070 C   0  0  0  0  0  0  0  0  0  0  0  0
    2.0730   -1.4280    0.3380 C   0  0  1  0  0  0  0  0  0  0  0  0
    0.7630   -0.8320    0.4810 C   0  0  0  0  0  0  0  0  0  0  0  0
    0.2010   -0.9550    1.6470 O   0  0  0  0  0  0  0  0  0  0  0  0
    0.0190   -0.1360   -0.4750 N   0  0  0  0  0  0  0  0  0  0  0  0
   -1.2730    0.4430   -0.3010 C   0  0  0  0  0  0  0  0  0  0  0  0
   -2.4320   -0.4060   -0.1320 C   0  0  0  0  0  0  0  0  0  0  0  0
   -3.6420    0.2690    0.1120 C   0  0  0  0  0  0  0  0  0  0  0  0
   -3.6740    1.7080    0.2130 C   0  0  0  0  0  0  0  0  0  0  0  0
   -3.6540    2.4650   -0.9390 C   0  0  0  0  0  0  0  0  0  0  0  0
   -3.6910    3.8440   -0.9270 C   0  0  0  0  0  0  0  0  0  0  0  0
   -3.7500    4.5050    0.2670 C   0  0  0  0  0  0  0  0  0  0  0  0
   -3.7710    3.7770    1.4360 C   0  0  0  0  0  0  0  0  0  0  0  0
   -3.8320    4.4710    2.6330 O   0  0  0  0  0  0  0  0  0  0  0  0
   -3.7330    2.4000    1.4180 C   0  0  0  0  0  0  0  0  0  0  0  0
   -4.7880   -0.4650    0.2510 C   0  0  0  0  0  0  0  0  0  0  0  0
   -6.3340    0.3030    0.5570 Cl  0  0  0  0  0  0  0  0  0  0  0  0
   -4.7570   -1.8500    0.1530 C   0  0  0  0  0  0  0  0  0  0  0  0
   -5.7160   -2.8400    0.2450 C   0  0  0  0  0  0  0  0  0  0  0  0
   -5.1240   -3.9970    0.0710 O   0  0  0  0  0  0  0  0  0  0  0  0
   -3.8370   -3.8610   -0.1320 C   0  0  0  0  0  0  0  0  0  0  0  0
   -3.5750   -2.5190   -0.0860 C   0  0  0  0  0  0  0  0  0  0  0  0
   -2.4000   -1.7650   -0.2290 C   0  0  0  0  0  0  0  0  0  0  0  0
   -1.2250   -2.4420   -0.4740 O   0  0  0  0  0  0  0  0  0  0  0  0
    2.4800   -2.1360    1.6510 C   0  0  0  0  0  0  0  0  0  0  0  0
    3.6920   -2.9900    1.4300 C   0  0  0  0  0  0  0  0  0  0  0  0
    4.6950   -2.2820    0.6890 O   0  0  0  0  0  0  0  0  0  0  0  0
    4.4580   -0.9400    0.3280 C   0  0  0  0  0  0  0  0  0  0  0  0
    5.5140   -0.0650    0.1440 C   0  0  0  0  0  0  0  0  0  0  0  0
    5.2930    1.2510   -0.2070 C   0  0  0  0  0  0  0  0  0  0  0  0
    4.0230    1.7480   -0.3860 C   0  0  0  0  0  0  0  0  0  0  0  0
    3.7890    3.0780   -0.7410 O   0  0  0  0  0  0  0  0  0  0  0  0
    4.8680    3.9750   -0.9330 C   0  0  0  0  0  0  0  0  0  0  0  0
    2.9610    0.8710   -0.2020 C   0  0  0  0  0  0  0  0  0  0  0  0
    3.1910   -0.4350    0.1450 C   0  0  0  0  0  0  0  0  0  0  0  0
  1  2  1  0
  3  2  1  6
  3  4  1  0
  3 26  1  0
  3 36  1  0
  4  5  2  0
  4  6  1  0
  6  7  1  0
  7  8  1  0
  8  9  1  0
  8 24  2  0
  9 10  1  0
  9 17  2  0
 10 11  2  0
 10 16  1  0
 11 12  1  0
 12 13  2  0
 13 14  1  0
 14 15  1  0
 14 16  2  0
 17 18  1  0
 17 19  1  0
 19 20  2  0
 19 23  1  0
 20 21  1  0
 21 22  1  0
 22 23  2  0
 23 24  1  0
 24 25  1  0
 26 27  1  0
 27 28  1  0
 28 29  1  0
 29 30  2  0
 29 36  1  0
 30 31  1  0
 31 32  2  0
 32 33  1  0
 32 35  1  0
 33 34  1  0
 35 36  2  0
M  END
