
     RDKit          3D

 36 39  0  0  0  0  0  0  0  0999 V2000
   -0.0200    5.9260    0.8430 C   0  0  0  0  0  0  0  0  0  0  0  0
   -0.9180    4.9820    0.5290 C   0  0  0  0  0  0  0  0  0  0  0  0
   -0.4830    3.5830    0.3680 C   0  0  0  0  0  0  0  0  0  0  0  0
   -1.3170    2.5900    0.0900 C   0  0  0  0  0  0  0  0  0  0  0  0
   -0.9680    1.2300   -0.0770 C   0  0  0  0  0  0  0  0  0  0  0  0
    0.1110    0.5300   -0.0300 C   0  0  0  0  0  0  0  0  0  0  0  0
    1.3530    0.9720    0.2200 N   0  0  0  0  0  0  0  0  0  0  0  0
    2.4790    0.1970    0.2420 C   0  0  0  0  0  0  0  0  0  0  0  0
    3.5990    0.7720    0.4980 O   0  0  0  0  0  0  0  0  0  0  0  0
    2.4090   -1.1420   -0.0030 C   0  0  0  0  0  0  0  0  0  0  0  0
    3.5040   -1.8650    0.0190 C   0  0  0  0  0  0  0  0  0  0  0  0
    4.8220   -1.3530    0.2880 C   0  0  0  0  0  0  0  0  0  0  0  0
    5.3200   -1.2720    1.5620 C   0  0  0  0  0  0  0  0  0  0  0  0
    4.5830   -1.6800    2.6620 O   0  0  0  0  0  0  0  0  0  0  0  0
    6.5890   -0.7780    1.8220 C   0  0  0  0  0  0  0  0  0  0  0  0
    7.3820   -0.3520    0.7680 C   0  0  0  0  0  0  0  0  0  0  0  0
    6.8940   -0.4270   -0.5190 C   0  0  0  0  0  0  0  0  0  0  0  0
    7.8780    0.1030   -1.8470 Cl  0  0  0  0  0  0  0  0  0  0  0  0
    5.6110   -0.9300   -0.7520 C   0  0  0  0  0  0  0  0  0  0  0  0
    5.1660   -0.9880   -2.0390 O   0  0  0  0  0  0  0  0  0  0  0  0
    1.1640   -1.6450   -0.2630 C   0  0  0  0  0  0  0  0  0  0  0  0
    0.0300   -0.8710   -0.2850 C   0  0  0  0  0  0  0  0  0  0  0  0
   -1.2530   -1.5140   -0.5180 C   0  0  0  0  0  0  0  0  0  0  0  0
   -1.4910   -2.1980   -1.7210 C   0  0  0  0  0  0  0  0  0  0  0  0
   -2.6700   -2.8620   -1.9760 C   0  0  0  0  0  0  0  0  0  0  0  0
   -3.6830   -2.8820   -1.0440 C   0  0  0  0  0  0  0  0  0  0  0  0
   -4.8910   -3.5490   -1.2790 O   0  0  0  0  0  0  0  0  0  0  0  0
   -5.1480   -4.2400   -2.4780 C   0  0  0  0  0  0  0  0  0  0  0  0
   -3.4780   -2.2180    0.1470 C   0  0  0  0  0  0  0  0  0  0  0  0
   -4.5140   -2.2490    1.0780 O   0  0  0  0  0  0  0  0  0  0  0  0
   -4.4350   -1.6140    2.3300 C   0  0  0  0  0  0  0  0  0  0  0  0
   -2.2920   -1.5590    0.3860 C   0  0  0  0  0  0  0  0  0  0  0  0
   -2.7680    2.9510   -0.0750 C   0  0  0  0  0  0  0  0  0  0  0  0
   -3.6510    1.9360   -0.3620 O   0  0  0  0  0  0  0  0  0  0  0  0
   -3.1630    4.1880    0.0520 C   0  0  0  0  0  0  0  0  0  0  0  0
   -2.3240    5.3340    0.3510 C   0  0  0  0  0  0  0  0  0  0  0  0
  1  2  2  0
  2  3  1  0
  2 36  1  0
  3  4  2  0
  4  5  1  0
  4 33  1  0
  5  6  2  3
  6  7  1  0
  6 22  1  0
  7  8  1  0
  8  9  2  0
  8 10  1  0
 10 11  2  3
 10 21  1  0
 11 12  1  0
 12 13  2  0
 12 19  1  0
 13 14  1  0
 13 15  1  0
 15 16  2  0
 16 17  1  0
 17 18  1  0
 17 19  2  0
 19 20  1  0
 21 22  2  0
 22 23  1  0
 23 24  2  0
 23 32  1  0
 24 25  1  0
 25 26  2  0
 26 27  1  0
 26 29  1  0
 27 28  1  0
 29 30  1  0
 29 32  2  0
 30 31  1  0
 33 34  1  0
 33 35  2  0
 35 36  1  0
M  END
