
     RDKit          3D

 36 40  0  0  0  0  0  0  0  0999 V2000
   -5.2100   -2.4730   -1.6210 C   0  0  0  0  0  0  0  0  0  0  0  0
   -4.1920   -1.3170   -1.7210 C   0  0  0  0  0  0  0  0  0  0  0  0
   -4.2820   -0.4290   -0.5730 C   0  0  0  0  0  0  0  0  0  0  0  0
   -5.3430    0.4820   -0.5240 C   0  0  0  0  0  0  0  0  0  0  0  0
   -6.4600    0.4980   -1.8490 Cl  0  0  0  0  0  0  0  0  0  0  0  0
   -5.4750    1.3420    0.5720 C   0  0  0  0  0  0  0  0  0  0  0  0
   -4.6040    1.3380    1.6180 C   0  0  0  0  0  0  0  0  0  0  0  0
   -3.5530    0.4300    1.5600 C   0  0  0  0  0  0  0  0  0  0  0  0
   -2.6360    0.3840    2.6000 O   0  0  0  0  0  0  0  0  0  0  0  0
   -3.4120   -0.4370    0.4650 C   0  0  0  0  0  0  0  0  0  0  0  0
   -2.2580   -1.3520    0.4900 C   0  0  1  0  0  0  0  0  0  0  0  0
   -2.4690   -2.6140    0.0110 O   0  0  0  0  0  0  0  0  0  0  0  0
   -1.1760   -0.7200   -0.3300 C   0  0  0  0  0  0  0  0  0  0  0  0
   -1.3590    0.0120   -1.4020 O   0  0  0  0  0  0  0  0  0  0  0  0
   -0.2560    0.4240   -1.8970 C   0  0  0  0  0  0  0  0  0  0  0  0
   -0.0620    1.2750   -3.1080 C   0  0  0  0  0  0  0  0  0  0  0  0
    0.7540   -0.0580   -1.1120 C   0  0  0  0  0  0  0  0  0  0  0  0
    0.2020   -0.8020   -0.0910 C   0  0  0  0  0  0  0  0  0  0  0  0
    0.7570   -1.4430    1.0590 C   0  0  0  0  0  0  0  0  0  0  0  0
    1.8710   -1.9330    1.3750 C   0  0  0  0  0  0  0  0  0  0  0  0
    3.1640   -2.1480    0.8220 C   0  0  0  0  0  0  0  0  0  0  0  0
    4.0910   -2.6480    1.6200 O   0  0  0  0  0  0  0  0  0  0  0  0
    3.6120   -1.9100   -0.4850 N   0  0  0  0  0  0  0  0  0  0  0  0
    5.0350   -2.2090   -0.7950 C   0  0  0  0  0  0  0  0  0  0  0  0
    5.9190   -1.1620   -0.2550 C   0  0  0  0  0  0  0  0  0  0  0  0
    6.7470   -1.3810    0.8210 C   0  0  0  0  0  0  0  0  0  0  0  0
    7.5740   -0.3810    1.3260 C   0  0  0  0  0  0  0  0  0  0  0  0
    7.5730    0.8570    0.7450 C   0  0  0  0  0  0  0  0  0  0  0  0
    6.7570    1.1120   -0.3350 C   0  0  0  0  0  0  0  0  0  0  0  0
    5.9490    0.1060   -0.8140 C   0  0  0  0  0  0  0  0  0  0  0  0
    6.9370    2.4360   -0.7440 O   0  0  0  0  0  0  0  0  0  0  0  0
    7.7750    3.0590    0.2240 C   0  0  0  0  0  0  0  0  0  0  0  0
    8.2830    2.0120    1.0370 O   0  0  0  0  0  0  0  0  0  0  0  0
   -4.9890    2.3510    2.6380 C   0  0  0  0  0  0  0  0  0  0  0  0
   -5.8800    3.2850    1.8530 C   0  0  0  0  0  0  0  0  0  0  0  0
   -6.5230    2.3700    0.8000 C   0  0  0  0  0  0  0  0  0  0  0  0
  1  2  1  0
  2  3  1  0
  3  4  2  0
  3 10  1  0
  4  5  1  0
  4  6  1  0
  6  7  2  0
  6 36  1  0
  7  8  1  0
  7 34  1  0
  8  9  1  0
  8 10  2  0
 10 11  1  0
 11 12  1  6
 11 13  1  0
 13 14  1  0
 13 18  2  0
 14 15  1  0
 15 16  1  0
 15 17  2  0
 17 18  1  0
 18 19  1  0
 19 20  2  3
 20 21  1  0
 21 22  2  0
 21 23  1  0
 23 24  1  0
 24 25  1  0
 25 26  2  0
 25 30  1  0
 26 27  1  0
 27 28  2  0
 28 29  1  0
 28 33  1  0
 29 30  2  0
 29 31  1  0
 31 32  1  0
 32 33  1  0
 34 35  1  0
 35 36  1  0
M  END
