
     RDKit          3D

 34 37  0  0  0  0  0  0  0  0999 V2000
   -5.5130    1.8740    0.1220 C   0  0  0  0  0  0  0  0  0  0  0  0
   -5.1900    0.5090    0.6120 C   0  0  0  0  0  0  0  0  0  0  0  0
   -5.8350    0.0220    1.6620 C   0  0  0  0  0  0  0  0  0  0  0  0
   -5.5770   -1.2650    2.1780 N   0  0  0  0  0  0  0  0  0  0  0  0
   -4.2070   -0.2380   -0.0450 O   0  0  0  0  0  0  0  0  0  0  0  0
   -2.9890   -0.5230    0.6140 C   0  0  0  0  0  0  0  0  0  0  0  0
   -2.2580    0.7470    0.9880 C   0  0  0  0  0  0  0  0  0  0  0  0
   -1.0270    0.4190    1.6530 N   0  0  0  0  0  0  0  0  0  0  0  0
   -0.8630    0.3340    2.9690 N   0  0  0  0  0  0  0  0  0  0  0  0
    0.3950    0.0410    3.2760 C   0  0  0  0  0  0  0  0  0  0  0  0
    0.8440   -0.1010    4.4350 O   0  0  0  0  0  0  0  0  0  0  0  0
    1.0980   -0.0730    2.0860 C   0  0  0  0  0  0  0  0  0  0  0  0
    2.3780   -0.3560    1.8190 N   0  0  0  0  0  0  0  0  0  0  0  0
    2.8540   -0.4270    0.5590 C   0  0  0  0  0  0  0  0  0  0  0  0
    4.2100   -0.7270    0.2830 N   0  0  0  0  0  0  0  0  0  0  0  0
    4.6640   -0.8030   -1.0830 C   0  0  0  0  0  0  0  0  0  0  0  0
    6.0080   -1.5390   -1.1510 C   0  0  0  0  0  0  0  0  0  0  0  0
    5.9740   -2.7130   -0.2000 C   0  0  1  0  0  0  0  0  0  0  0  0
    5.0110   -3.6290   -0.6480 F   0  0  0  0  0  0  0  0  0  0  0  0
    7.1970   -3.3700   -0.3560 F   0  0  0  0  0  0  0  0  0  0  0  0
    5.6780   -2.3620    1.2150 C   0  0  0  0  0  0  0  0  0  0  0  0
    5.1570   -0.9590    1.3390 C   0  0  0  0  0  0  0  0  0  0  0  0
    2.0070   -0.2020   -0.4720 C   0  0  0  0  0  0  0  0  0  0  0  0
    0.6240    0.1070   -0.2420 C   0  0  0  0  0  0  0  0  0  0  0  0
   -0.1160    0.3050   -1.3130 O   0  0  0  0  0  0  0  0  0  0  0  0
   -0.8870    0.9780   -2.1140 C   0  0  0  0  0  0  0  0  0  0  0  0
   -2.1590    0.5880   -2.5530 C   0  0  0  0  0  0  0  0  0  0  0  0
   -2.9370    1.3370   -3.3970 C   0  0  0  0  0  0  0  0  0  0  0  0
   -4.5250    0.8210   -3.9270 Cl  0  0  0  0  0  0  0  0  0  0  0  0
   -2.4520    2.5460   -3.8480 C   0  0  0  0  0  0  0  0  0  0  0  0
   -1.2020    2.9720   -3.4420 C   0  0  0  0  0  0  0  0  0  0  0  0
   -0.4560    2.2210   -2.6130 C   0  0  0  0  0  0  0  0  0  0  0  0
    0.7720    2.6710   -2.2330 F   0  0  0  0  0  0  0  0  0  0  0  0
    0.1600    0.1730    1.0760 C   0  0  0  0  0  0  0  0  0  0  0  0
  1  2  1  0
  2  3  2  3
  2  5  1  0
  3  4  1  0
  5  6  1  0
  6  7  1  0
  7  8  1  0
  8  9  1  0
  8 34  1  0
  9 10  1  0
 10 11  2  0
 10 12  1  0
 12 13  2  0
 12 34  1  0
 13 14  1  0
 14 15  1  0
 14 23  2  0
 15 16  1  0
 15 22  1  0
 16 17  1  0
 17 18  1  0
 18 19  1  6
 18 20  1  0
 18 21  1  0
 21 22  1  0
 23 24  1  0
 24 25  1  0
 24 34  2  0
 25 26  1  0
 26 27  2  0
 26 32  1  0
 27 28  1  0
 28 29  1  0
 28 30  2  0
 30 31  1  0
 31 32  2  0
 32 33  1  0
M  END
