
     RDKit          3D

 34 36  0  0  0  0  0  0  0  0999 V2000
   -6.1470    2.0660   -1.5030 C   0  0  0  0  0  0  0  0  0  0  0  0
   -5.4160    2.8130   -0.4210 C   0  0  0  0  0  0  0  0  0  0  0  0
   -4.5040    1.9200    0.3910 C   0  0  1  0  0  0  0  0  0  0  0  0
   -3.8370    2.7940    1.4350 C   0  0  0  0  0  0  0  0  0  0  0  0
   -5.3460    0.8890    1.1350 C   0  0  0  0  0  0  0  0  0  0  0  0
   -3.5660    1.2560   -0.4670 N   0  0  0  0  0  0  0  0  0  0  0  0
   -2.5780    0.3560   -0.0340 C   0  0  0  0  0  0  0  0  0  0  0  0
   -2.4760    0.0880    1.1790 O   0  0  0  0  0  0  0  0  0  0  0  0
   -1.6600   -0.2740   -1.0000 C   0  0  0  0  0  0  0  0  0  0  0  0
   -0.7160   -1.1640   -0.3910 N   0  0  0  0  0  0  0  0  0  0  0  0
    0.5010   -0.8320    0.0690 C   0  0  0  0  0  0  0  0  0  0  0  0
    1.0070    0.3540    0.0310 N   0  0  0  0  0  0  0  0  0  0  0  0
    2.3480    0.5890    0.5670 C   0  0  0  0  0  0  0  0  0  0  0  0
    3.2830    0.5630   -0.6300 C   0  0  2  0  0  0  0  0  0  0  0  0
    3.2210   -0.6720   -1.2810 O   0  0  0  0  0  0  0  0  0  0  0  0
    4.6740    0.9020   -0.2660 C   0  0  0  0  0  0  0  0  0  0  0  0
    5.5200   -0.0320    0.3030 C   0  0  0  0  0  0  0  0  0  0  0  0
    6.8170    0.3280    0.6310 C   0  0  0  0  0  0  0  0  0  0  0  0
    7.8730   -0.8840    1.3550 Cl  0  0  0  0  0  0  0  0  0  0  0  0
    7.2380    1.6150    0.3810 C   0  0  0  0  0  0  0  0  0  0  0  0
    6.4070    2.5410   -0.1810 C   0  0  0  0  0  0  0  0  0  0  0  0
    6.8220    3.8470   -0.4390 O   0  0  0  0  0  0  0  0  0  0  0  0
    8.1370    4.2000   -0.1030 C   0  0  0  0  0  0  0  0  0  0  0  0
    5.1070    2.1960   -0.5150 C   0  0  0  0  0  0  0  0  0  0  0  0
    1.0590   -1.9570    0.5610 N   0  0  0  0  0  0  0  0  0  0  0  0
    0.1950   -2.9820    0.4080 C   0  0  0  0  0  0  0  0  0  0  0  0
    0.2170   -4.3290    0.7130 C   0  0  0  0  0  0  0  0  0  0  0  0
   -0.8590   -5.1520    0.4230 C   0  0  0  0  0  0  0  0  0  0  0  0
   -0.8200   -6.8560    0.8140 Cl  0  0  0  0  0  0  0  0  0  0  0  0
   -1.9940   -4.6570   -0.1830 C   0  0  0  0  0  0  0  0  0  0  0  0
   -3.1390   -5.5680   -0.4850 C   0  0  0  0  0  0  0  0  0  0  0  0
   -4.1820   -4.9080   -1.0880 O   0  0  0  0  0  0  0  0  0  0  0  0
   -2.0180   -3.3130   -0.4890 C   0  0  0  0  0  0  0  0  0  0  0  0
   -0.9480   -2.4900   -0.2010 C   0  0  0  0  0  0  0  0  0  0  0  0
  1  2  1  0
  2  3  1  0
  3  4  1  1
  3  5  1  0
  3  6  1  0
  6  7  1  0
  7  8  2  0
  7  9  1  0
  9 10  1  0
 10 11  1  0
 10 34  1  0
 11 12  2  3
 11 25  1  0
 12 13  1  0
 13 14  1  0
 14 15  1  1
 14 16  1  0
 16 17  2  0
 16 24  1  0
 17 18  1  0
 18 19  1  0
 18 20  2  0
 20 21  1  0
 21 22  1  0
 21 24  2  0
 22 23  1  0
 25 26  1  0
 26 27  2  0
 26 34  1  0
 27 28  1  0
 28 29  1  0
 28 30  2  0
 30 31  1  0
 30 33  1  0
 31 32  1  0
 33 34  2  0
M  END
