
     RDKit          3D

 34 37  0  0  0  0  0  0  0  0999 V2000
   -1.1670   -1.6180    0.1860 O   0  0  0  0  0  0  0  0  0  0  0  0
   -1.2280   -0.3870   -0.1320 C   0  0  0  0  0  0  0  0  0  0  0  0
   -2.2220    0.4540    0.5690 C   0  0  0  0  0  0  0  0  0  0  0  0
   -2.9810   -0.4150    1.5460 C   0  0  0  0  0  0  0  0  0  0  0  0
   -3.9850    0.2700    2.2890 N   0  0  0  0  0  0  0  0  0  0  0  0
   -3.7290    0.8240    3.5180 C   0  0  0  0  0  0  0  0  0  0  0  0
   -4.8560    1.4060    3.9920 C   0  0  0  0  0  0  0  0  0  0  0  0
   -5.8170    1.2060    3.0390 C   0  0  0  0  0  0  0  0  0  0  0  0
   -7.4820    1.7510    3.1320 Cl  0  0  0  0  0  0  0  0  0  0  0  0
   -5.2640    0.4890    1.9660 C   0  0  0  0  0  0  0  0  0  0  0  0
   -6.0210    0.1370    0.7580 C   0  0  0  0  0  0  0  0  0  0  0  0
   -5.3050   -0.6250   -0.2280 N   0  0  0  0  0  0  0  0  0  0  0  0
   -6.1870   -0.7300   -1.4090 C   0  0  0  0  0  0  0  0  0  0  0  0
   -7.3880   -1.5850   -1.1720 C   0  0  0  0  0  0  0  0  0  0  0  0
   -8.1410   -1.6260   -2.3450 F   0  0  0  0  0  0  0  0  0  0  0  0
   -0.3420    0.0480   -1.1230 N   0  0  0  0  0  0  0  0  0  0  0  0
    0.5880   -0.7100   -1.7850 O   0  0  0  0  0  0  0  0  0  0  0  0
    1.9420   -0.4190   -1.7760 C   0  0  0  0  0  0  0  0  0  0  0  0
    2.5220    0.4560   -2.6660 C   0  0  0  0  0  0  0  0  0  0  0  0
    3.8780    0.7370   -2.6420 C   0  0  0  0  0  0  0  0  0  0  0  0
    4.6750    0.1370   -1.7150 C   0  0  0  0  0  0  0  0  0  0  0  0
    6.0270    0.2230   -1.4560 C   0  0  0  0  0  0  0  0  0  0  0  0
    7.0550    0.9190   -2.0140 C   0  0  0  0  0  0  0  0  0  0  0  0
    8.2880    0.7620   -1.4980 N   0  0  0  0  0  0  0  0  0  0  0  0
    8.5330   -0.0670   -0.4420 C   0  0  0  0  0  0  0  0  0  0  0  0
    9.8970   -0.1860    0.0630 C   0  0  0  0  0  0  0  0  0  0  0  0
   10.1550   -0.2940    1.3510 C   0  0  0  0  0  0  0  0  0  0  0  0
    9.1070   -0.2910    2.2190 F   0  0  0  0  0  0  0  0  0  0  0  0
   11.3930   -0.4070    1.8560 F   0  0  0  0  0  0  0  0  0  0  0  0
    7.5290   -0.7270    0.0780 O   0  0  0  0  0  0  0  0  0  0  0  0
    6.2880   -0.6550   -0.3390 C   0  0  0  0  0  0  0  0  0  0  0  0
    5.1110   -1.2050    0.0030 N   0  0  0  0  0  0  0  0  0  0  0  0
    4.1310   -0.7480   -0.8040 C   0  0  0  0  0  0  0  0  0  0  0  0
    2.7630   -1.0180   -0.8450 C   0  0  0  0  0  0  0  0  0  0  0  0
  1  2  2  0
  2  3  1  0
  2 16  1  0
  3  4  1  0
  4  5  1  0
  5  6  1  0
  5 10  1  0
  6  7  2  0
  7  8  1  0
  8  9  1  0
  8 10  2  0
 10 11  1  0
 11 12  1  0
 12 13  1  0
 13 14  1  0
 14 15  1  0
 16 17  1  0
 17 18  1  0
 18 19  2  0
 18 34  1  0
 19 20  1  0
 20 21  2  0
 21 22  1  0
 21 33  1  0
 22 23  2  0
 22 31  1  0
 23 24  1  0
 24 25  2  0
 25 26  1  0
 25 30  1  0
 26 27  2  3
 27 28  1  0
 27 29  1  0
 30 31  1  0
 31 32  2  0
 32 33  1  0
 33 34  2  0
M  END
