
     RDKit          3D

 33 36  0  0  0  0  0  0  0  0999 V2000
    6.7410   -2.2800   -1.4170 C   0  0  0  0  0  0  0  0  0  0  0  0
    6.0880   -2.2030   -0.1770 O   0  0  0  0  0  0  0  0  0  0  0  0
    5.2870   -1.0630   -0.1680 N   0  0  0  0  0  0  0  0  0  0  0  0
    5.9190    0.1810   -0.4650 C   0  0  0  0  0  0  0  0  0  0  0  0
    3.9480   -1.2640    0.1310 C   0  0  0  0  0  0  0  0  0  0  0  0
    3.5820   -2.4860    0.3660 O   0  0  0  0  0  0  0  0  0  0  0  0
    2.9190   -0.2410    0.2050 C   0  0  0  0  0  0  0  0  0  0  0  0
    3.0090    1.0860    0.0160 C   0  0  0  0  0  0  0  0  0  0  0  0
    1.7110    1.6020    0.2100 C   0  0  0  0  0  0  0  0  0  0  0  0
    0.9160    0.5480    0.5050 C   0  0  0  0  0  0  0  0  0  0  0  0
   -0.5390    0.4870    0.8040 C   0  0  0  0  0  0  0  0  0  0  0  0
   -1.3630    0.4490   -0.3890 N   0  0  0  0  0  0  0  0  0  0  0  0
   -2.7700    0.4050   -0.1570 C   0  0  0  0  0  0  0  0  0  0  0  0
   -3.4860   -0.7960    0.0280 C   0  0  0  0  0  0  0  0  0  0  0  0
   -2.8940   -2.1230   -0.0060 C   0  0  0  0  0  0  0  0  0  0  0  0
   -3.2160   -3.0530    0.9520 C   0  0  0  0  0  0  0  0  0  0  0  0
   -2.6660   -4.3400    0.9420 C   0  0  0  0  0  0  0  0  0  0  0  0
   -3.0110   -5.2250    1.9070 F   0  0  0  0  0  0  0  0  0  0  0  0
   -1.7900   -4.6950   -0.0320 C   0  0  0  0  0  0  0  0  0  0  0  0
   -1.2300   -5.9250   -0.0900 F   0  0  0  0  0  0  0  0  0  0  0  0
   -1.4510   -3.7850   -1.0030 C   0  0  0  0  0  0  0  0  0  0  0  0
   -0.3290   -4.2300   -2.2590 Cl  0  0  0  0  0  0  0  0  0  0  0  0
   -2.0050   -2.5120   -0.9800 C   0  0  0  0  0  0  0  0  0  0  0  0
   -4.7640   -0.4340    0.2290 N   0  0  0  0  0  0  0  0  0  0  0  0
   -4.8590    0.8800    0.1770 N   0  0  0  0  0  0  0  0  0  0  0  0
   -3.6420    1.4480   -0.0620 C   0  0  0  0  0  0  0  0  0  0  0  0
   -3.3680    2.8720   -0.1830 C   0  0  0  0  0  0  0  0  0  0  0  0
   -2.1460    3.4070   -0.4900 C   0  0  0  0  0  0  0  0  0  0  0  0
   -2.0140    4.8010   -0.5630 C   0  0  0  0  0  0  0  0  0  0  0  0
   -3.0300    5.6420   -0.3480 N   0  0  0  0  0  0  0  0  0  0  0  0
   -4.2360    5.1550   -0.0470 C   0  0  0  0  0  0  0  0  0  0  0  0
   -4.3910    3.8040    0.0310 C   0  0  0  0  0  0  0  0  0  0  0  0
    1.6550   -0.5110    0.4930 O   0  0  0  0  0  0  0  0  0  0  0  0
  1  2  1  0
  2  3  1  0
  3  4  1  0
  3  5  1  0
  5  6  2  0
  5  7  1  0
  7  8  2  0
  7 33  1  0
  8  9  1  0
  9 10  2  0
 10 11  1  0
 10 33  1  0
 11 12  1  0
 12 13  1  0
 13 14  1  0
 13 26  2  0
 14 15  1  0
 14 24  2  0
 15 16  2  0
 15 23  1  0
 16 17  1  0
 17 18  1  0
 17 19  2  0
 19 20  1  0
 19 21  1  0
 21 22  1  0
 21 23  2  0
 24 25  1  0
 25 26  1  0
 26 27  1  0
 27 28  2  0
 27 32  1  0
 28 29  1  0
 29 30  2  0
 30 31  1  0
 31 32  2  0
M  END
