
     RDKit          3D

 34 37  0  0  0  0  0  0  0  0999 V2000
  -10.3070    0.2890   -0.1030 C   0  0  0  0  0  0  0  0  0  0  0  0
   -9.3440   -0.0150   -1.0220 O   0  0  0  0  0  0  0  0  0  0  0  0
   -8.2380    0.7420   -1.0160 C   0  0  0  0  0  0  0  0  0  0  0  0
   -7.0960    0.4790   -0.1340 C   0  0  0  0  0  0  0  0  0  0  0  0
   -5.8440    0.3330   -0.6070 O   0  0  0  0  0  0  0  0  0  0  0  0
   -4.9580    0.1340    0.2930 C   0  0  0  0  0  0  0  0  0  0  0  0
   -3.4970   -0.0580    0.2250 C   0  0  0  0  0  0  0  0  0  0  0  0
   -2.7170    0.1920   -0.7760 C   0  0  0  0  0  0  0  0  0  0  0  0
   -1.2860   -0.0660   -0.6350 N   0  0  0  0  0  0  0  0  0  0  0  0
   -0.5880   -1.0650   -1.2700 C   0  0  0  0  0  0  0  0  0  0  0  0
   -1.2120   -1.8660   -2.0370 O   0  0  0  0  0  0  0  0  0  0  0  0
    0.8400   -1.2970   -1.1400 C   0  0  0  0  0  0  0  0  0  0  0  0
    1.8060   -0.5060   -0.5450 C   0  0  0  0  0  0  0  0  0  0  0  0
    3.0060   -1.1460   -0.6280 C   0  0  0  0  0  0  0  0  0  0  0  0
    4.3160   -0.7410   -0.1100 C   0  0  0  0  0  0  0  0  0  0  0  0
    5.3590   -1.6500   -0.1870 C   0  0  0  0  0  0  0  0  0  0  0  0
    6.6140   -1.3620    0.2940 C   0  0  0  0  0  0  0  0  0  0  0  0
    6.8680   -0.1050    0.8850 C   0  0  0  0  0  0  0  0  0  0  0  0
    8.1640    0.1600    1.4210 N   0  0  0  0  0  0  0  0  0  0  0  0
    9.2250    0.6840    0.7900 C   0  0  0  0  0  0  0  0  0  0  0  0
   10.2730    0.7220    1.7090 C   0  0  0  0  0  0  0  0  0  0  0  0
    9.8030    0.2130    2.8990 C   0  0  0  0  0  0  0  0  0  0  0  0
    8.5130   -0.1170    2.6760 N   0  0  0  0  0  0  0  0  0  0  0  0
    5.8350    0.7970    0.9590 C   0  0  0  0  0  0  0  0  0  0  0  0
    4.5670    0.4770    0.4620 C   0  0  0  0  0  0  0  0  0  0  0  0
    2.7530   -2.3080   -1.2750 N   0  0  0  0  0  0  0  0  0  0  0  0
    1.4770   -2.3960   -1.5700 N   0  0  0  0  0  0  0  0  0  0  0  0
   -3.0720    0.7510   -2.1070 C   0  0  1  0  0  0  0  0  0  0  0  0
   -2.6440   -0.1540   -3.0640 F   0  0  0  0  0  0  0  0  0  0  0  0
   -4.3690    1.0940   -2.2770 F   0  0  0  0  0  0  0  0  0  0  0  0
   -2.1390    2.2500   -2.4410 Cl  0  0  0  0  0  0  0  0  0  0  0  0
   -5.6690    0.1340    1.4990 C   0  0  0  0  0  0  0  0  0  0  0  0
   -7.0080    0.3500    1.2270 C   0  0  0  0  0  0  0  0  0  0  0  0
   -7.9880    0.3890    2.1950 F   0  0  0  0  0  0  0  0  0  0  0  0
  1  2  1  0
  2  3  1  0
  3  4  1  0
  4  5  1  0
  4 33  2  0
  5  6  1  0
  6  7  1  0
  6 32  2  0
  7  8  2  3
  8  9  1  0
  8 28  1  0
  9 10  1  0
 10 11  2  0
 10 12  1  0
 12 13  2  0
 12 27  1  0
 13 14  1  0
 14 15  1  0
 14 26  2  0
 15 16  2  0
 15 25  1  0
 16 17  1  0
 17 18  2  0
 18 19  1  0
 18 24  1  0
 19 20  1  0
 19 23  1  0
 20 21  2  0
 21 22  1  0
 22 23  2  0
 24 25  2  0
 26 27  1  0
 28 29  1  6
 28 30  1  0
 28 31  1  0
 32 33  1  0
 33 34  1  0
M  END
