
     RDKit          3D

 34 37  0  0  0  0  0  0  0  0999 V2000
   -3.5450   -0.4390    0.4860 O   0  0  0  0  0  0  0  0  0  0  0  0
   -2.3920   -0.0130    0.4480 C   0  0  0  0  0  0  0  0  0  0  0  0
   -2.2200    1.4870    0.4520 C   0  0  0  0  0  0  0  0  0  0  0  0
   -3.5120    2.1720    0.5000 C   0  0  0  0  0  0  0  0  0  0  0  0
   -4.1300    2.7880    1.5200 N   0  0  0  0  0  0  0  0  0  0  0  0
   -5.2870    3.2740    1.1270 O   0  0  0  0  0  0  0  0  0  0  0  0
   -5.4700    3.0040   -0.1370 C   0  0  0  0  0  0  0  0  0  0  0  0
   -6.5220    3.3040   -0.9880 C   0  0  0  0  0  0  0  0  0  0  0  0
   -6.4700    2.9000   -2.2950 C   0  0  0  0  0  0  0  0  0  0  0  0
   -5.3800    2.1990   -2.7630 C   0  0  0  0  0  0  0  0  0  0  0  0
   -4.3410    1.9110   -1.8930 C   0  0  0  0  0  0  0  0  0  0  0  0
   -3.2850    1.2330   -2.3440 F   0  0  0  0  0  0  0  0  0  0  0  0
   -4.3840    2.3110   -0.5860 C   0  0  0  0  0  0  0  0  0  0  0  0
   -1.3060   -0.8920    0.4020 N   0  0  0  0  0  0  0  0  0  0  0  0
   -1.3180   -2.3030    0.3930 C   0  0  0  0  0  0  0  0  0  0  0  0
   -2.4860   -3.0640    0.4340 C   0  0  0  0  0  0  0  0  0  0  0  0
   -2.3920   -4.4630    0.4210 C   0  0  0  0  0  0  0  0  0  0  0  0
   -1.1850   -5.1010    0.3710 C   0  0  0  0  0  0  0  0  0  0  0  0
   -0.0480   -4.3340    0.3310 C   0  0  0  0  0  0  0  0  0  0  0  0
   -0.0960   -2.9570    0.3410 C   0  0  0  0  0  0  0  0  0  0  0  0
    1.0560   -2.2040    0.3010 O   0  0  0  0  0  0  0  0  0  0  0  0
    2.2940   -2.8570    0.2490 C   0  0  0  0  0  0  0  0  0  0  0  0
    3.4500   -1.9470    0.2100 C   0  0  0  0  0  0  0  0  0  0  0  0
    4.7230   -2.3230    0.1700 N   0  0  0  0  0  0  0  0  0  0  0  0
    5.4630   -1.2390    0.1430 N   0  0  0  0  0  0  0  0  0  0  0  0
    4.6690   -0.1550    0.1640 C   0  0  0  0  0  0  0  0  0  0  0  0
    5.0560    1.2510    0.1470 C   0  0  0  0  0  0  0  0  0  0  0  0
    4.1010    2.2130    0.1730 F   0  0  0  0  0  0  0  0  0  0  0  0
    6.3450    1.5490    0.1060 C   0  0  0  0  0  0  0  0  0  0  0  0
    6.7270    2.9510    0.0880 C   0  0  0  0  0  0  0  0  0  0  0  0
    5.4800    4.1760    0.1230 Cl  0  0  0  0  0  0  0  0  0  0  0  0
    8.0160    3.2570    0.0470 C   0  0  0  0  0  0  0  0  0  0  0  0
    8.4260    4.5580    0.0290 F   0  0  0  0  0  0  0  0  0  0  0  0
    3.4130   -0.6120    0.2060 N   0  0  0  0  0  0  0  0  0  0  0  0
  1  2  2  0
  2  3  1  0
  2 14  1  0
  3  4  1  0
  4  5  2  0
  4 13  1  0
  5  6  1  0
  6  7  1  0
  7  8  2  0
  7 13  1  0
  8  9  1  0
  9 10  2  0
 10 11  1  0
 11 12  1  0
 11 13  2  0
 14 15  1  0
 15 16  2  0
 15 20  1  0
 16 17  1  0
 17 18  2  0
 18 19  1  0
 19 20  2  0
 20 21  1  0
 21 22  1  0
 22 23  1  0
 23 24  2  0
 23 34  1  0
 24 25  1  0
 25 26  1  0
 26 27  1  0
 26 34  2  0
 27 28  1  0
 27 29  2  3
 29 30  1  0
 30 31  1  0
 30 32  2  3
 32 33  1  0
M  END
