
     RDKit          3D

 37 40  0  0  0  0  0  0  0  0999 V2000
    4.8060   -4.5090   -2.2380 C   0  0  0  0  0  0  0  0  0  0  0  0
    4.0750   -3.3190   -1.7450 C   0  0  0  0  0  0  0  0  0  0  0  0
    2.8080   -3.3630   -1.1820 C   0  0  0  0  0  0  0  0  0  0  0  0
    2.3160   -2.1760   -0.7960 N   0  0  0  0  0  0  0  0  0  0  0  0
    2.9190   -1.0040   -0.9050 C   0  0  0  0  0  0  0  0  0  0  0  0
    2.2350    0.1740   -0.4320 N   0  0  0  0  0  0  0  0  0  0  0  0
    0.9470    0.0530    0.1290 C   0  0  0  0  0  0  0  0  0  0  0  0
    0.4720   -1.1410    0.1730 O   0  0  0  0  0  0  0  0  0  0  0  0
    0.1700    1.1720    0.6310 C   0  0  0  0  0  0  0  0  0  0  0  0
   -1.0110    0.8990    1.1580 C   0  0  0  0  0  0  0  0  0  0  0  0
   -1.6090   -0.4200    1.2920 C   0  0  0  0  0  0  0  0  0  0  0  0
   -2.6560   -0.7760    0.4340 C   0  0  0  0  0  0  0  0  0  0  0  0
   -3.2540   -2.0020    0.5950 C   0  0  0  0  0  0  0  0  0  0  0  0
   -4.3460   -2.4600   -0.2410 C   0  0  0  0  0  0  0  0  0  0  0  0
   -4.8400   -3.6110   -0.0220 O   0  0  0  0  0  0  0  0  0  0  0  0
   -4.8840   -1.6150   -1.3330 C   0  0  1  0  0  0  0  0  0  0  0  0
   -5.4390   -0.3000   -0.8670 C   0  0  0  0  0  0  0  0  0  0  0  0
   -3.7940   -1.3460   -2.3530 C   0  0  0  0  0  0  0  0  0  0  0  0
   -6.0030   -2.3860   -2.0110 C   0  0  0  0  0  0  0  0  0  0  0  0
   -2.7820   -2.8240    1.6070 C   0  0  0  0  0  0  0  0  0  0  0  0
   -1.7770   -2.4690    2.4230 N   0  0  0  0  0  0  0  0  0  0  0  0
   -1.1750   -1.2710    2.2850 C   0  0  0  0  0  0  0  0  0  0  0  0
   -0.2200   -0.9410    3.0720 O   0  0  0  0  0  0  0  0  0  0  0  0
    0.6250    2.5640    0.5810 C   0  0  0  0  0  0  0  0  0  0  0  0
    1.7490    2.9040    0.0860 O   0  0  0  0  0  0  0  0  0  0  0  0
   -0.1310    3.6680    1.0720 N   0  0  0  0  0  0  0  0  0  0  0  0
    0.4010    5.0120    0.9780 C   0  0  0  0  0  0  0  0  0  0  0  0
    1.4440    5.2800    1.9810 C   0  0  0  0  0  0  0  0  0  0  0  0
    1.9440    4.4850    2.9710 C   0  0  0  0  0  0  0  0  0  0  0  0
    2.9090    5.2200    3.6290 C   0  0  0  0  0  0  0  0  0  0  0  0
    2.9650    6.3920    3.0450 O   0  0  0  0  0  0  0  0  0  0  0  0
    2.1220    6.4770    2.0690 C   0  0  0  0  0  0  0  0  0  0  0  0
    4.2200   -0.8960   -1.4730 C   0  0  0  0  0  0  0  0  0  0  0  0
    4.9360    0.2080   -1.6420 C   0  0  0  0  0  0  0  0  0  0  0  0
    6.1970    0.1510   -2.2170 C   0  0  0  0  0  0  0  0  0  0  0  0
    6.3110   -1.6800   -2.5220 S   0  0  0  0  0  0  0  0  0  0  0  0
    4.7270   -2.1000   -1.8680 C   0  0  0  0  0  0  0  0  0  0  0  0
  1  2  1  0
  2  3  2  0
  2 37  1  0
  3  4  1  0
  4  5  2  0
  5  6  1  0
  5 33  1  0
  6  7  1  0
  7  8  2  0
  7  9  1  0
  9 10  2  3
  9 24  1  0
 10 11  1  0
 11 12  2  0
 11 22  1  0
 12 13  1  0
 13 14  1  0
 13 20  2  0
 14 15  2  0
 14 16  1  0
 16 17  1  1
 16 18  1  0
 16 19  1  0
 20 21  1  0
 21 22  1  0
 22 23  2  0
 24 25  2  0
 24 26  1  0
 26 27  1  0
 27 28  1  0
 28 29  1  0
 28 32  2  0
 29 30  2  0
 30 31  1  0
 31 32  1  0
 33 34  1  0
 33 37  2  0
 34 35  2  0
 35 36  1  0
 36 37  1  0
M  END
