
     RDKit          3D

 37 40  0  0  0  0  0  0  0  0999 V2000
   -8.6370    2.4890   -0.2590 C   0  0  0  0  0  0  0  0  0  0  0  0
   -7.3030    1.8250   -0.2340 C   0  0  0  0  0  0  0  0  0  0  0  0
   -6.7060    1.5550    0.9900 C   0  0  0  0  0  0  0  0  0  0  0  0
   -5.4770    0.9440    1.0540 C   0  0  0  0  0  0  0  0  0  0  0  0
   -4.8360    0.5980   -0.1250 C   0  0  0  0  0  0  0  0  0  0  0  0
   -3.5390   -0.0490   -0.0400 C   0  0  0  0  0  0  0  0  0  0  0  0
   -3.0270   -0.2740    1.1220 N   0  0  0  0  0  0  0  0  0  0  0  0
   -1.7780   -0.8940    1.3090 C   0  0  0  0  0  0  0  0  0  0  0  0
   -0.6230   -0.2870    0.9840 C   0  0  0  0  0  0  0  0  0  0  0  0
   -0.6150    1.0400    0.4230 C   0  0  0  0  0  0  0  0  0  0  0  0
    0.3170    1.8330    0.0320 C   0  0  0  0  0  0  0  0  0  0  0  0
    1.7360    1.7370   -0.0130 C   0  0  0  0  0  0  0  0  0  0  0  0
    2.3860    2.7740   -0.4920 O   0  0  0  0  0  0  0  0  0  0  0  0
    2.5940    0.6910    0.3780 N   0  0  0  0  0  0  0  0  0  0  0  0
    4.0220    0.8260    0.2340 N   0  0  0  0  0  0  0  0  0  0  0  0
    4.7040    1.8580    0.9140 C   0  0  0  0  0  0  0  0  0  0  0  0
    4.2840    2.9410    1.3920 O   0  0  0  0  0  0  0  0  0  0  0  0
    6.4130    1.2470    0.9510 S   0  0  0  0  0  0  0  0  0  0  0  0
    6.2440    0.2940   -0.5720 C   0  0  0  0  0  0  0  0  0  0  0  0
    7.1150   -0.0490   -1.4730 C   0  0  0  0  0  0  0  0  0  0  0  0
    8.5170    0.3170   -1.3960 C   0  0  0  0  0  0  0  0  0  0  0  0
    9.4110   -0.0480   -2.3440 C   0  0  0  0  0  0  0  0  0  0  0  0
   10.7250    0.4780   -1.9650 C   0  0  0  0  0  0  0  0  0  0  0  0
   10.5140    1.1910   -0.6930 C   0  0  0  0  0  0  0  0  0  0  0  0
    9.2170    1.0830   -0.3810 C   0  0  0  0  0  0  0  0  0  0  0  0
    4.7980   -0.0190   -0.5590 C   0  0  0  0  0  0  0  0  0  0  0  0
    4.3730   -1.0150   -1.2560 O   0  0  0  0  0  0  0  0  0  0  0  0
   -1.7620   -2.1970    1.8590 N   0  0  0  0  0  0  0  0  0  0  0  0
   -2.0280   -3.3220    0.9970 C   0  0  0  0  0  0  0  0  0  0  0  0
   -1.1720   -4.5240    1.3500 C   0  0  0  0  0  0  0  0  0  0  0  0
   -0.4910   -4.3540    2.5390 O   0  0  0  0  0  0  0  0  0  0  0  0
   -1.3130   -3.8470    3.5450 C   0  0  0  0  0  0  0  0  0  0  0  0
   -1.4800   -2.3750    3.2780 C   0  0  0  0  0  0  0  0  0  0  0  0
   -5.4410    0.8710   -1.3490 C   0  0  0  0  0  0  0  0  0  0  0  0
   -4.8250    0.5370   -2.5440 O   0  0  0  0  0  0  0  0  0  0  0  0
   -6.6880    1.4920   -1.4040 C   0  0  0  0  0  0  0  0  0  0  0  0
   -7.2970    1.7660   -2.7310 C   0  0  0  0  0  0  0  0  0  0  0  0
  1  2  1  0
  2  3  2  0
  2 36  1  0
  3  4  1  0
  4  5  2  0
  5  6  1  0
  5 34  1  0
  6  7  2  3
  7  8  1  0
  8  9  2  3
  8 28  1  0
  9 10  1  0
 10 11  2  3
 11 12  1  0
 12 13  2  0
 12 14  1  0
 14 15  1  0
 15 16  1  0
 15 26  1  0
 16 17  2  0
 16 18  1  0
 18 19  1  0
 19 20  2  3
 19 26  1  0
 20 21  1  0
 21 22  2  0
 21 25  1  0
 22 23  1  0
 23 24  1  0
 24 25  2  0
 26 27  2  0
 28 29  1  0
 28 33  1  0
 29 30  1  0
 30 31  1  0
 31 32  1  0
 32 33  1  0
 34 35  1  0
 34 36  2  0
 36 37  1  0
M  END
