
     RDKit          3D

 37 41  0  0  0  0  0  0  0  0999 V2000
   -9.0670    0.8960   -1.5750 C   0  0  0  0  0  0  0  0  0  0  0  0
   -8.7540   -0.2470   -0.6570 C   0  0  0  0  0  0  0  0  0  0  0  0
   -9.8020   -0.9430   -0.0820 C   0  0  0  0  0  0  0  0  0  0  0  0
   -9.5520   -1.9990    0.7670 C   0  0  0  0  0  0  0  0  0  0  0  0
   -8.2370   -2.3520    1.0330 C   0  0  0  0  0  0  0  0  0  0  0  0
   -7.1940   -1.6400    0.4450 C   0  0  0  0  0  0  0  0  0  0  0  0
   -5.8150   -2.1010    0.7960 C   0  0  0  0  0  0  0  0  0  0  0  0
   -4.8040   -1.2800    0.2380 N   0  0  0  0  0  0  0  0  0  0  0  0
   -3.5010   -1.7100    0.6090 C   0  0  1  0  0  0  0  0  0  0  0  0
   -3.2210   -3.0860    0.0670 C   0  0  0  0  0  0  0  0  0  0  0  0
   -2.4370   -0.7810    0.1390 C   0  0  0  0  0  0  0  0  0  0  0  0
   -1.3190   -1.2270   -0.5130 C   0  0  0  0  0  0  0  0  0  0  0  0
   -0.3210   -0.3390   -0.9460 C   0  0  0  0  0  0  0  0  0  0  0  0
   -0.4360    1.0070   -0.7310 C   0  0  0  0  0  0  0  0  0  0  0  0
   -1.5630    1.4620   -0.0740 C   0  0  0  0  0  0  0  0  0  0  0  0
   -2.5440    0.5900    0.3530 C   0  0  0  0  0  0  0  0  0  0  0  0
   -1.4090    2.8350    0.0000 C   0  0  0  0  0  0  0  0  0  0  0  0
   -2.3600    3.7860    0.6200 C   0  0  0  0  0  0  0  0  0  0  0  0
   -0.2460    3.1690   -0.5870 N   0  0  0  0  0  0  0  0  0  0  0  0
    0.3580    2.0600   -1.0380 N   0  0  0  0  0  0  0  0  0  0  0  0
    1.6330    2.0580   -1.7250 C   0  0  0  0  0  0  0  0  0  0  0  0
    2.7790    1.9240   -0.7750 C   0  0  0  0  0  0  0  0  0  0  0  0
    3.3090    3.0980   -0.2260 C   0  0  0  0  0  0  0  0  0  0  0  0
    4.3660    2.9990    0.6450 C   0  0  0  0  0  0  0  0  0  0  0  0
    4.9300    1.7950    1.0050 C   0  0  0  0  0  0  0  0  0  0  0  0
    6.0660    1.7670    1.9550 C   0  0  0  0  0  0  0  0  0  0  0  0
    6.7370    0.5130    2.0500 N   0  0  0  0  0  0  0  0  0  0  0  0
    7.4020   -0.0200    0.9210 C   0  0  0  0  0  0  0  0  0  0  0  0
    7.4810    0.6590   -0.2730 C   0  0  0  0  0  0  0  0  0  0  0  0
    8.1240    0.1460   -1.3750 C   0  0  0  0  0  0  0  0  0  0  0  0
    8.7170   -1.0820   -1.3100 C   0  0  0  0  0  0  0  0  0  0  0  0
    8.6610   -1.8040   -0.1170 C   0  0  0  0  0  0  0  0  0  0  0  0
    9.3080   -3.1400   -0.0480 C   0  0  0  0  0  0  0  0  0  0  0  0
    8.0020   -1.2570    0.9800 C   0  0  0  0  0  0  0  0  0  0  0  0
    4.4030    0.6480    0.4610 C   0  0  0  0  0  0  0  0  0  0  0  0
    3.3270    0.7140   -0.4290 C   0  0  0  0  0  0  0  0  0  0  0  0
   -7.4600   -0.5950   -0.3940 C   0  0  0  0  0  0  0  0  0  0  0  0
  1  2  1  0
  2  3  2  0
  2 37  1  0
  3  4  1  0
  4  5  2  0
  5  6  1  0
  6  7  1  0
  6 37  2  0
  7  8  1  0
  8  9  1  0
  9 10  1  6
  9 11  1  0
 11 12  2  0
 11 16  1  0
 12 13  1  0
 13 14  2  0
 14 15  1  0
 14 20  1  0
 15 16  2  0
 15 17  1  0
 17 18  1  0
 17 19  2  0
 19 20  1  0
 20 21  1  0
 21 22  1  0
 22 23  2  0
 22 36  1  0
 23 24  1  0
 24 25  2  0
 25 26  1  0
 25 35  1  0
 26 27  1  0
 27 28  1  0
 28 29  2  0
 28 34  1  0
 29 30  1  0
 30 31  2  0
 31 32  1  0
 32 33  1  0
 32 34  2  0
 35 36  2  0
M  END
