
     RDKit          3D

 37 40  0  0  0  0  0  0  0  0999 V2000
    0.1190    0.8080    2.8520 C   0  0  0  0  0  0  0  0  0  0  0  0
    0.2670    1.8490    1.3560 S   0  0  0  0  0  0  0  0  0  0  0  0
    1.3090    0.9020    0.2150 C   0  0  0  0  0  0  0  0  0  0  0  0
    2.6710    1.0610    0.2810 C   0  0  0  0  0  0  0  0  0  0  0  0
    3.5210    0.3740   -0.5220 C   0  0  0  0  0  0  0  0  0  0  0  0
    4.9030    0.4890   -0.4890 N   0  0  0  0  0  0  0  0  0  0  0  0
    5.6320    1.1190    0.5220 C   0  0  0  0  0  0  0  0  0  0  0  0
    5.0970    1.6440    1.5210 O   0  0  0  0  0  0  0  0  0  0  0  0
    7.1150    1.1930    0.4460 C   0  0  0  0  0  0  0  0  0  0  0  0
    7.7740    1.0680   -0.7500 C   0  0  0  0  0  0  0  0  0  0  0  0
    9.1680    1.1320   -0.8060 C   0  0  0  0  0  0  0  0  0  0  0  0
    9.8450    1.3160    0.3180 N   0  0  0  0  0  0  0  0  0  0  0  0
    9.2280    1.4400    1.4930 C   0  0  0  0  0  0  0  0  0  0  0  0
    9.8730    1.6140    2.5630 O   0  0  0  0  0  0  0  0  0  0  0  0
    7.8510    1.3830    1.5950 C   0  0  0  0  0  0  0  0  0  0  0  0
    2.9580   -0.5050   -1.4260 C   0  0  0  0  0  0  0  0  0  0  0  0
    1.5750   -0.6890   -1.5190 C   0  0  0  0  0  0  0  0  0  0  0  0
    0.7430    0.0180   -0.6940 C   0  0  0  0  0  0  0  0  0  0  0  0
   -0.6620   -0.0690   -0.7490 N   0  0  0  0  0  0  0  0  0  0  0  0
   -1.4100   -0.9840   -1.4970 C   0  0  0  0  0  0  0  0  0  0  0  0
   -0.8740   -1.8520   -2.2100 O   0  0  0  0  0  0  0  0  0  0  0  0
   -2.9230   -1.0120   -1.5200 C   0  0  1  0  0  0  0  0  0  0  0  0
   -3.4790   -2.3600   -1.4830 C   0  0  0  0  0  0  0  0  0  0  0  0
   -4.3450   -2.8040   -2.4110 C   0  0  0  0  0  0  0  0  0  0  0  0
   -4.7280   -4.1970   -2.1040 C   0  0  0  0  0  0  0  0  0  0  0  0
   -3.9750   -4.4980   -0.8820 C   0  0  0  0  0  0  0  0  0  0  0  0
   -3.2690   -3.4390   -0.5450 C   0  0  0  0  0  0  0  0  0  0  0  0
   -3.4170   -0.0570   -0.6030 N   0  0  0  0  0  0  0  0  0  0  0  0
   -3.9720    1.1810   -1.0960 C   0  0  0  0  0  0  0  0  0  0  0  0
   -4.1470    1.3580   -2.3330 O   0  0  0  0  0  0  0  0  0  0  0  0
   -4.3280    2.2330   -0.1090 C   0  0  0  0  0  0  0  0  0  0  0  0
   -5.2250    1.5570    0.9100 C   0  0  0  0  0  0  0  0  0  0  0  0
   -4.3560    0.5800    1.6860 C   0  0  1  0  0  0  0  0  0  0  0  0
   -3.5790    1.4470    2.6830 C   0  0  0  0  0  0  0  0  0  0  0  0
   -5.2830   -0.2910    2.5030 C   0  0  0  0  0  0  0  0  0  0  0  0
   -3.4390   -0.1920    0.8130 C   0  0  0  0  0  0  0  0  0  0  0  0
   -2.6640   -0.9860    1.3690 O   0  0  0  0  0  0  0  0  0  0  0  0
  1  2  1  0
  2  3  1  0
  3  4  2  0
  3 18  1  0
  4  5  1  0
  5  6  1  0
  5 16  2  0
  6  7  1  0
  7  8  2  0
  7  9  1  0
  9 10  1  0
  9 15  2  0
 10 11  2  0
 11 12  1  0
 12 13  1  0
 13 14  2  0
 13 15  1  0
 16 17  1  0
 17 18  2  0
 18 19  1  0
 19 20  1  0
 20 21  2  0
 20 22  1  0
 22 23  1  0
 22 28  1  1
 23 24  2  0
 23 27  1  0
 24 25  1  0
 25 26  1  0
 26 27  2  0
 28 29  1  0
 28 36  1  0
 29 30  2  0
 29 31  1  0
 31 32  1  0
 32 33  1  0
 33 34  1  1
 33 35  1  0
 33 36  1  0
 36 37  2  0
M  END
