
     RDKit          3D

 37 41  0  0  0  0  0  0  0  0999 V2000
    9.4000    4.1290   -1.0950 C   0  0  0  0  0  0  0  0  0  0  0  0
    8.2760    3.2650   -0.6730 C   0  0  0  0  0  0  0  0  0  0  0  0
    7.2160    3.8440   -0.0050 C   0  0  0  0  0  0  0  0  0  0  0  0
    6.1410    3.1070    0.4170 C   0  0  0  0  0  0  0  0  0  0  0  0
    6.1150    1.7360    0.1670 C   0  0  0  0  0  0  0  0  0  0  0  0
    7.1430    1.1170   -0.4910 C   0  0  0  0  0  0  0  0  0  0  0  0
    7.1720   -0.2670   -0.7560 N   0  0  0  0  0  0  0  0  0  0  0  0
    6.3090   -1.2580   -0.2650 C   0  0  0  0  0  0  0  0  0  0  0  0
    6.5290   -2.5700   -0.6890 C   0  0  0  0  0  0  0  0  0  0  0  0
    5.7410   -3.6050   -0.2530 C   0  0  0  0  0  0  0  0  0  0  0  0
    4.7100   -3.2820    0.6340 C   0  0  0  0  0  0  0  0  0  0  0  0
    4.5050   -1.9910    1.0410 C   0  0  0  0  0  0  0  0  0  0  0  0
    3.3950   -1.6940    1.9860 C   0  0  0  0  0  0  0  0  0  0  0  0
    2.1440   -1.3910    1.1550 C   0  0  0  0  0  0  0  0  0  0  0  0
    1.0370   -1.0860    2.1160 C   0  0  0  0  0  0  0  0  0  0  0  0
   -0.1980   -0.7940    1.4440 N   0  0  0  0  0  0  0  0  0  0  0  0
   -0.9350   -1.7940    0.7690 C   0  0  0  0  0  0  0  0  0  0  0  0
   -0.6120   -3.1210    0.8050 C   0  0  0  0  0  0  0  0  0  0  0  0
   -1.3810   -4.0730    0.1420 C   0  0  0  0  0  0  0  0  0  0  0  0
   -2.4920   -3.6780   -0.5660 C   0  0  0  0  0  0  0  0  0  0  0  0
   -2.8580   -2.3410   -0.6300 C   0  0  0  0  0  0  0  0  0  0  0  0
   -2.0790   -1.4270    0.0340 C   0  0  0  0  0  0  0  0  0  0  0  0
   -2.4090    0.0340    0.0090 C   0  0  0  0  0  0  0  0  0  0  0  0
   -3.5550    0.2660   -0.7570 N   0  0  0  0  0  0  0  0  0  0  0  0
   -4.6550    0.9290   -0.1790 C   0  0  0  0  0  0  0  0  0  0  0  0
   -5.7620    1.0730   -1.1640 C   0  0  0  0  0  0  0  0  0  0  0  0
   -6.9590    1.7770   -0.6400 C   0  0  0  0  0  0  0  0  0  0  0  0
   -7.1680    3.0890   -1.0250 C   0  0  0  0  0  0  0  0  0  0  0  0
   -8.2810    3.7270   -0.5320 C   0  0  0  0  0  0  0  0  0  0  0  0
   -9.1770    3.1210    0.3130 C   0  0  0  0  0  0  0  0  0  0  0  0
   -8.9290    1.8160    0.6690 C   0  0  0  0  0  0  0  0  0  0  0  0
   -7.8140    1.1110    0.2010 C   0  0  0  0  0  0  0  0  0  0  0  0
   -7.6100   -0.3160    0.6370 C   0  0  0  0  0  0  0  0  0  0  0  0
   -3.7400   -0.5230   -1.9080 C   0  0  0  0  0  0  0  0  0  0  0  0
   -4.0830   -1.9400   -1.4180 C   0  0  0  0  0  0  0  0  0  0  0  0
    5.3060   -1.0400    0.5790 N   0  0  0  0  0  0  0  0  0  0  0  0
    8.2070    1.9210   -0.8950 C   0  0  0  0  0  0  0  0  0  0  0  0
  1  2  1  0
  2  3  2  0
  2 37  1  0
  3  4  1  0
  4  5  2  0
  5  6  1  0
  6  7  1  0
  6 37  2  0
  7  8  1  0
  8  9  2  0
  8 36  1  0
  9 10  1  0
 10 11  2  0
 11 12  1  0
 12 13  1  0
 12 36  2  0
 13 14  1  0
 14 15  1  0
 15 16  1  0
 16 17  1  0
 17 18  2  0
 17 22  1  0
 18 19  1  0
 19 20  2  0
 20 21  1  0
 21 22  2  0
 21 35  1  0
 22 23  1  0
 23 24  1  0
 24 25  1  0
 24 34  1  0
 25 26  1  0
 26 27  1  0
 27 28  2  0
 27 32  1  0
 28 29  1  0
 29 30  2  0
 30 31  1  0
 31 32  2  0
 32 33  1  0
 34 35  1  0
M  END
