
     RDKit          3D

 37 40  0  0  0  0  0  0  0  0999 V2000
    9.2710   -1.9730   -1.7860 C   0  0  0  0  0  0  0  0  0  0  0  0
    7.9440   -1.5550   -1.2210 C   0  0  0  0  0  0  0  0  0  0  0  0
    7.7760   -0.7930   -0.0930 C   0  0  0  0  0  0  0  0  0  0  0  0
    6.4220   -0.6380    0.0790 C   0  0  0  0  0  0  0  0  0  0  0  0
    5.8110   -1.3060   -0.9410 C   0  0  0  0  0  0  0  0  0  0  0  0
    4.3750   -1.4830   -1.2660 C   0  0  0  0  0  0  0  0  0  0  0  0
    3.5420   -0.8130   -0.2920 N   0  0  0  0  0  0  0  0  0  0  0  0
    2.1200   -0.8470   -0.3960 C   0  0  0  0  0  0  0  0  0  0  0  0
    1.6470   -1.4860   -1.3680 O   0  0  0  0  0  0  0  0  0  0  0  0
    1.2870   -0.1870    0.5640 N   0  0  0  0  0  0  0  0  0  0  0  0
   -0.1670   -0.2470    0.4300 C   0  0  0  0  0  0  0  0  0  0  0  0
   -0.7850    0.8740    0.3660 C   0  0  0  0  0  0  0  0  0  0  0  0
   -0.0900    2.1710    0.4220 C   0  0  0  0  0  0  0  0  0  0  0  0
    1.0250    2.4790   -0.3060 C   0  0  0  0  0  0  0  0  0  0  0  0
    1.6680    3.7100   -0.2090 C   0  0  0  0  0  0  0  0  0  0  0  0
    1.1590    4.6470    0.6530 C   0  0  0  0  0  0  0  0  0  0  0  0
    0.0390    4.3820    1.4050 C   0  0  0  0  0  0  0  0  0  0  0  0
   -0.5170    5.3330    2.3110 N   0  0  0  0  0  0  0  0  0  0  0  0
   -0.7000    6.9780    1.8150 S   0  0  2  0  0  0  0  0  0  0  0  0
   -1.8150    6.9770    0.4200 C   0  0  0  0  0  0  0  0  0  0  0  0
    0.6190    7.5960    1.4330 O   0  0  0  0  0  0  0  0  0  0  0  0
   -1.2700    7.8010    2.9290 O   0  0  0  0  0  0  0  0  0  0  0  0
   -0.5600    3.1710    1.2820 C   0  0  0  0  0  0  0  0  0  0  0  0
   -0.7480   -1.5480    0.3820 C   0  0  0  0  0  0  0  0  0  0  0  0
    0.0970   -2.5510    0.4550 O   0  0  0  0  0  0  0  0  0  0  0  0
   -2.0800   -1.9590    0.2700 N   0  0  0  0  0  0  0  0  0  0  0  0
   -2.2670   -3.4310    0.2240 C   0  0  0  0  0  0  0  0  0  0  0  0
   -3.3490   -3.7660   -0.7900 C   0  0  0  0  0  0  0  0  0  0  0  0
   -4.6340   -3.1520   -0.3440 C   0  0  0  0  0  0  0  0  0  0  0  0
   -5.8210   -3.8420   -0.4190 C   0  0  0  0  0  0  0  0  0  0  0  0
   -5.8330   -5.2160   -0.9760 C   0  0  0  0  0  0  0  0  0  0  0  0
   -6.9450   -3.2000    0.0370 C   0  0  0  0  0  0  0  0  0  0  0  0
   -6.9190   -1.9190    0.5540 C   0  0  0  0  0  0  0  0  0  0  0  0
   -5.7220   -1.2440    0.6210 C   0  0  0  0  0  0  0  0  0  0  0  0
   -4.5490   -1.8840    0.1570 C   0  0  0  0  0  0  0  0  0  0  0  0
   -3.2550   -1.1630    0.2040 C   0  0  0  0  0  0  0  0  0  0  0  0
    6.7540   -1.8320   -1.6830 O   0  0  0  0  0  0  0  0  0  0  0  0
  1  2  1  0
  2  3  2  0
  2 37  1  0
  3  4  1  0
  4  5  2  0
  5  6  1  0
  5 37  1  0
  6  7  1  0
  7  8  1  0
  8  9  2  0
  8 10  1  0
 10 11  1  0
 11 12  2  3
 11 24  1  0
 12 13  1  0
 13 14  2  0
 13 23  1  0
 14 15  1  0
 15 16  2  0
 16 17  1  0
 17 18  1  0
 17 23  2  0
 18 19  1  0
 19 20  1  6
 19 21  2  0
 19 22  2  0
 24 25  2  0
 24 26  1  0
 26 27  1  0
 26 36  1  0
 27 28  1  0
 28 29  1  0
 29 30  2  0
 29 35  1  0
 30 31  1  0
 30 32  1  0
 32 33  2  0
 33 34  1  0
 34 35  2  0
 35 36  1  0
M  END
