
     RDKit          3D

 31 33  0  0  0  0  0  0  0  0999 V2000
   -4.6720    5.1190   -2.2630 C   0  0  0  0  0  0  0  0  0  0  0  0
   -4.0950    3.9330   -2.3730 C   0  0  0  0  0  0  0  0  0  0  0  0
   -2.6950    3.7350   -2.8110 C   0  0  0  0  0  0  0  0  0  0  0  0
   -1.9020    3.1070   -1.8880 O   0  0  0  0  0  0  0  0  0  0  0  0
   -2.2660    1.8840   -1.5110 C   0  0  0  0  0  0  0  0  0  0  0  0
   -1.4650    1.1630   -0.5330 C   0  0  0  0  0  0  0  0  0  0  0  0
   -1.9560   -0.1570   -0.2000 O   0  0  0  0  0  0  0  0  0  0  0  0
   -2.8390   -0.8050   -1.0720 C   0  0  0  0  0  0  0  0  0  0  0  0
   -3.1990   -2.1520   -0.5070 C   0  0  1  0  0  0  0  0  0  0  0  0
   -2.0450   -3.0980   -0.4320 C   0  0  0  0  0  0  0  0  0  0  0  0
   -2.0310   -3.6060    0.9920 C   0  0  0  0  0  0  0  0  0  0  0  0
   -3.1510   -2.8610    1.6320 C   0  0  0  0  0  0  0  0  0  0  0  0
   -3.7970   -2.0770    0.7230 O   0  0  0  0  0  0  0  0  0  0  0  0
   -0.3750    1.4720    0.1130 C   0  0  0  0  0  0  0  0  0  0  0  0
    0.3040    2.7420   -0.0560 C   0  0  0  0  0  0  0  0  0  0  0  0
   -0.0780    3.6440   -0.8240 O   0  0  0  0  0  0  0  0  0  0  0  0
    1.5050    2.9680    0.7220 N   0  0  0  0  0  0  0  0  0  0  0  0
    1.9710    1.9750    1.6010 C   0  0  0  0  0  0  0  0  0  0  0  0
    3.0170    2.1720    2.2790 O   0  0  0  0  0  0  0  0  0  0  0  0
    1.2890    0.7020    1.7710 C   0  0  0  0  0  0  0  0  0  0  0  0
    1.8310   -0.3290    2.7260 C   0  0  0  0  0  0  0  0  0  0  0  0
    3.1360   -0.6700    2.3010 O   0  0  0  0  0  0  0  0  0  0  0  0
    3.4030   -1.2070    1.0660 C   0  0  0  0  0  0  0  0  0  0  0  0
    2.4440   -1.4030    0.2800 O   0  0  0  0  0  0  0  0  0  0  0  0
    4.7770   -1.5390    0.6840 C   0  0  0  0  0  0  0  0  0  0  0  0
    5.8440   -1.3750    1.4230 C   0  0  0  0  0  0  0  0  0  0  0  0
    7.0100   -1.8380    0.6560 C   0  0  0  0  0  0  0  0  0  0  0  0
    6.4690   -2.2950   -0.6370 C   0  0  0  0  0  0  0  0  0  0  0  0
    5.1620   -2.1080   -0.5920 C   0  0  0  0  0  0  0  0  0  0  0  0
    0.2020    0.4790    1.0750 C   0  0  0  0  0  0  0  0  0  0  0  0
   -0.4260   -0.7430    1.2580 O   0  0  0  0  0  0  0  0  0  0  0  0
  1  2  2  0
  2  3  1  0
  3  4  1  0
  4  5  1  0
  5  6  1  0
  6  7  1  0
  6 14  2  3
  7  8  1  0
  9  8  1  1
  9 10  1  0
  9 13  1  0
 10 11  1  0
 11 12  1  0
 12 13  1  0
 14 15  1  0
 14 30  1  0
 15 16  2  0
 15 17  1  0
 17 18  1  0
 18 19  2  0
 18 20  1  0
 20 21  1  0
 20 30  2  0
 21 22  1  0
 22 23  1  0
 23 24  2  0
 23 25  1  0
 25 26  2  0
 25 29  1  0
 26 27  1  0
 27 28  1  0
 28 29  2  0
 30 31  1  0
M  END
