
     RDKit          3D

 31 33  0  0  0  0  0  0  0  0999 V2000
   -5.7950   -0.9600    3.0100 C   0  0  0  0  0  0  0  0  0  0  0  0
   -4.4570   -0.3790    2.4440 C   0  0  0  0  0  0  0  0  0  0  0  0
   -4.7540    0.7700    1.6170 C   0  0  0  0  0  0  0  0  0  0  0  0
   -4.2660    1.0460    0.4330 C   0  0  0  0  0  0  0  0  0  0  0  0
   -4.7250    2.1950   -0.1480 O   0  0  0  0  0  0  0  0  0  0  0  0
   -4.7890    2.8260   -1.3180 C   0  0  0  0  0  0  0  0  0  0  0  0
   -3.2680    0.2240   -0.2600 C   0  0  0  0  0  0  0  0  0  0  0  0
   -3.2430    0.2340   -1.6310 C   0  0  0  0  0  0  0  0  0  0  0  0
   -2.2240   -0.4520   -2.3000 C   0  0  0  0  0  0  0  0  0  0  0  0
   -1.2600   -1.1270   -1.5890 C   0  0  0  0  0  0  0  0  0  0  0  0
   -1.2510   -1.1600   -0.2160 C   0  0  0  0  0  0  0  0  0  0  0  0
   -0.3000   -1.8280    0.5280 O   0  0  0  0  0  0  0  0  0  0  0  0
    0.8760   -1.1820    0.9770 C   0  0  0  0  0  0  0  0  0  0  0  0
    0.9430    0.0140    0.6320 O   0  0  0  0  0  0  0  0  0  0  0  0
    1.8680   -1.9250    1.7670 C   0  0  0  0  0  0  0  0  0  0  0  0
    2.9900   -1.3200    2.2280 O   0  0  0  0  0  0  0  0  0  0  0  0
    3.9680   -0.7000    1.4890 C   0  0  0  0  0  0  0  0  0  0  0  0
    4.9650   -1.5000    0.8940 C   0  0  0  0  0  0  0  0  0  0  0  0
    4.8670   -2.8850    1.1090 O   0  0  0  0  0  0  0  0  0  0  0  0
    5.9830   -0.9880    0.1440 C   0  0  0  0  0  0  0  0  0  0  0  0
    6.0350    0.3840   -0.0380 C   0  0  0  0  0  0  0  0  0  0  0  0
    5.0880    1.2040    0.5230 C   0  0  0  0  0  0  0  0  0  0  0  0
    5.1380    2.5750    0.3420 O   0  0  0  0  0  0  0  0  0  0  0  0
    6.1800    3.1400   -0.4310 C   0  0  0  0  0  0  0  0  0  0  0  0
    4.0600    0.6550    1.2840 C   0  0  0  0  0  0  0  0  0  0  0  0
    3.1370    1.5570    1.8870 N   0  0  0  0  0  0  0  0  0  0  0  0
   -2.2690   -0.4730    0.4360 C   0  0  0  0  0  0  0  0  0  0  0  0
   -0.2810   -1.7850   -2.3170 O   0  0  0  0  0  0  0  0  0  0  0  0
   -0.1680   -1.4330   -3.6940 C   0  0  0  0  0  0  0  0  0  0  0  0
   -1.3700   -1.3260   -4.3440 O   0  0  0  0  0  0  0  0  0  0  0  0
   -2.2490   -0.4050   -3.7810 C   0  0  0  0  0  0  0  0  0  0  0  0
  1  2  1  0
  2  3  1  0
  3  4  2  3
  4  5  1  0
  4  7  1  0
  5  6  1  0
  7  8  2  0
  7 27  1  0
  8  9  1  0
  9 10  2  0
  9 31  1  0
 10 11  1  0
 10 28  1  0
 11 12  1  0
 11 27  2  0
 12 13  1  0
 13 14  2  0
 13 15  1  0
 15 16  1  0
 16 17  1  0
 17 18  2  0
 17 25  1  0
 18 19  1  0
 18 20  1  0
 20 21  2  0
 21 22  1  0
 22 23  1  0
 22 25  2  0
 23 24  1  0
 25 26  1  0
 28 29  1  0
 29 30  1  0
 30 31  1  0
M  END
