
     RDKit          3D

 31 33  0  0  0  0  0  0  0  0999 V2000
    3.6020   -2.0210    2.4120 C   0  0  0  0  0  0  0  0  0  0  0  0
    2.8150   -2.4240    1.1360 C   0  0  0  0  0  0  0  0  0  0  0  0
    3.7370   -2.3620    0.0230 C   0  0  0  0  0  0  0  0  0  0  0  0
    3.6470   -1.6350   -1.0580 C   0  0  0  0  0  0  0  0  0  0  0  0
    2.5100   -0.7440   -1.2670 C   0  0  0  0  0  0  0  0  0  0  0  0
    2.4170    0.0250   -2.3540 C   0  0  0  0  0  0  0  0  0  0  0  0
    1.2870    0.9180   -2.5710 C   0  0  0  0  0  0  0  0  0  0  0  0
    0.2880    1.0190   -1.7080 C   0  0  0  0  0  0  0  0  0  0  0  0
   -0.7490    1.8830   -1.9730 O   0  0  0  0  0  0  0  0  0  0  0  0
   -0.4480    3.2220   -2.3590 C   0  0  0  0  0  0  0  0  0  0  0  0
   -1.6870    3.9960   -2.6020 C   0  0  0  0  0  0  0  0  0  0  0  0
   -1.5840    5.3560   -2.9920 N   0  0  0  0  0  0  0  0  0  0  0  0
   -2.7860    3.4130   -2.4520 O   0  0  0  0  0  0  0  0  0  0  0  0
    0.3460    0.2050   -0.5200 C   0  0  0  0  0  0  0  0  0  0  0  0
   -0.6100    0.2460    0.3970 C   0  0  0  0  0  0  0  0  0  0  0  0
   -1.7920    1.0340    0.4170 C   0  0  0  0  0  0  0  0  0  0  0  0
   -2.6820    1.0700    1.3470 C   0  0  0  0  0  0  0  0  0  0  0  0
   -2.7650    0.3650    2.6080 C   0  0  0  0  0  0  0  0  0  0  0  0
   -3.9420   -0.5840    2.7120 C   0  0  0  0  0  0  0  0  0  0  0  0
   -4.9910   -0.2750    1.6910 C   0  0  0  0  0  0  0  0  0  0  0  0
   -5.1080    1.2090    1.5020 C   0  0  0  0  0  0  0  0  0  0  0  0
   -6.1880    1.7210    1.6760 O   0  0  0  0  0  0  0  0  0  0  0  0
   -3.8950    1.9980    1.1070 C   0  0  0  0  0  0  0  0  0  0  0  0
   -0.3750   -0.6530    1.4820 O   0  0  0  0  0  0  0  0  0  0  0  0
   -0.8640   -1.9820    1.1330 C   0  0  0  0  0  0  0  0  0  0  0  0
    1.4810   -0.6410   -0.3790 O   0  0  0  0  0  0  0  0  0  0  0  0
    4.7330   -1.7130   -2.0690 C   0  0  0  0  0  0  0  0  0  0  0  0
    4.7220   -1.0560   -3.1230 O   0  0  0  0  0  0  0  0  0  0  0  0
    5.8040   -2.5710   -1.8010 O   0  0  0  0  0  0  0  0  0  0  0  0
    5.5500   -3.6910   -0.9870 C   0  0  0  0  0  0  0  0  0  0  0  0
    4.8680   -3.2100    0.1550 O   0  0  0  0  0  0  0  0  0  0  0  0
  1  2  1  0
  2  3  1  0
  3  4  2  0
  3 31  1  0
  4  5  1  0
  4 27  1  0
  5  6  2  0
  5 26  1  0
  6  7  1  0
  7  8  2  0
  8  9  1  0
  8 14  1  0
  9 10  1  0
 10 11  1  0
 11 12  1  0
 11 13  2  0
 14 15  2  3
 14 26  1  0
 15 16  1  0
 15 24  1  0
 16 17  2  3
 17 18  1  0
 17 23  1  0
 18 19  1  0
 19 20  1  0
 20 21  1  0
 21 22  2  0
 21 23  1  0
 24 25  1  0
 27 28  2  0
 27 29  1  0
 29 30  1  0
 30 31  1  0
M  END
