
     RDKit          3D

 31 33  0  0  0  0  0  0  0  0999 V2000
   -5.5210   -1.4020   -2.0620 C   0  0  0  0  0  0  0  0  0  0  0  0
   -4.8490   -2.1120   -1.0520 O   0  0  0  0  0  0  0  0  0  0  0  0
   -3.7450   -1.4220   -0.6330 C   0  0  0  0  0  0  0  0  0  0  0  0
   -3.9380   -0.4550    0.4290 C   0  0  0  0  0  0  0  0  0  0  0  0
   -2.8190    0.3310    0.7240 C   0  0  0  0  0  0  0  0  0  0  0  0
   -1.5640    0.2540    0.0070 C   0  0  0  0  0  0  0  0  0  0  0  0
   -1.3330   -0.6300   -0.8170 O   0  0  0  0  0  0  0  0  0  0  0  0
   -0.5440    1.2080    0.2330 O   0  0  0  0  0  0  0  0  0  0  0  0
    0.6660    1.1040   -0.4780 C   0  0  0  0  0  0  0  0  0  0  0  0
    0.8280    1.6540   -1.7290 C   0  0  0  0  0  0  0  0  0  0  0  0
    2.0160    1.5410   -2.4050 C   0  0  0  0  0  0  0  0  0  0  0  0
    3.0590    0.8760   -1.8390 C   0  0  0  0  0  0  0  0  0  0  0  0
    4.2560    0.7570   -2.5090 O   0  0  0  0  0  0  0  0  0  0  0  0
    4.5390    1.2720   -3.7810 C   0  0  0  0  0  0  0  0  0  0  0  0
    2.9360    0.3120   -0.5880 C   0  0  0  0  0  0  0  0  0  0  0  0
    4.0320   -0.3710   -0.0240 O   0  0  0  0  0  0  0  0  0  0  0  0
    4.9770    0.2910    0.7470 C   0  0  0  0  0  0  0  0  0  0  0  0
    4.8120    1.5210    0.9180 O   0  0  0  0  0  0  0  0  0  0  0  0
    6.1210   -0.3700    1.3480 C   0  0  0  0  0  0  0  0  0  0  0  0
    7.0760    0.2560    2.1180 C   0  0  0  0  0  0  0  0  0  0  0  0
    8.0260   -0.6730    2.5320 C   0  0  0  0  0  0  0  0  0  0  0  0
    7.6110   -1.8710    1.9870 C   0  0  0  0  0  0  0  0  0  0  0  0
    6.4820   -1.6580    1.2930 N   0  0  0  0  0  0  0  0  0  0  0  0
    1.7440    0.4350    0.0700 C   0  0  0  0  0  0  0  0  0  0  0  0
   -2.8570    1.2240    1.8000 C   0  0  0  0  0  0  0  0  0  0  0  0
   -3.9960    1.3120    2.5520 C   0  0  0  0  0  0  0  0  0  0  0  0
   -5.0980    0.5390    2.2670 C   0  0  0  0  0  0  0  0  0  0  0  0
   -6.2210    0.6640    3.0560 O   0  0  0  0  0  0  0  0  0  0  0  0
   -5.0730   -0.3620    1.1870 C   0  0  0  0  0  0  0  0  0  0  0  0
   -6.2760   -1.1500    0.9600 C   0  0  0  0  0  0  0  0  0  0  0  0
   -7.1880   -0.8680    2.0380 O   0  0  0  0  0  0  0  0  0  0  0  0
  1  2  1  0
  2  3  1  0
  3  4  1  0
  4  5  2  0
  4 29  1  0
  5  6  1  0
  5 25  1  0
  6  7  2  0
  6  8  1  0
  8  9  1  0
  9 10  2  0
  9 24  1  0
 10 11  1  0
 11 12  2  0
 12 13  1  0
 12 15  1  0
 13 14  1  0
 15 16  1  0
 15 24  2  0
 16 17  1  0
 17 18  2  0
 17 19  1  0
 19 20  2  0
 19 23  1  0
 20 21  1  0
 21 22  2  0
 22 23  1  0
 25 26  2  0
 26 27  1  0
 27 28  1  0
 27 29  2  0
 29 30  1  0
 30 31  1  0
M  END
