
     RDKit          3D

 26 28  0  0  0  0  0  0  0  0999 V2000
    3.6830    0.0020   -1.2950 C   0  0  0  0  0  0  0  0  0  0  0  0
    3.0880   -1.0050   -0.3730 C   0  0  1  0  0  0  0  0  0  0  0  0
    2.7690   -2.2500   -1.1570 C   0  0  0  0  0  0  0  0  0  0  0  0
    4.1570   -1.3400    0.6750 C   0  0  0  0  0  0  0  0  0  0  0  0
    1.8570   -0.5260    0.3540 C   0  0  1  0  0  0  0  0  0  0  0  0
    2.2160    0.6990    1.1930 C   0  0  0  0  0  0  0  0  0  0  0  0
    0.9810    1.2370    1.7930 C   0  0  0  0  0  0  0  0  0  0  0  0
   -0.3300    0.7000    1.3490 C   0  0  1  0  0  0  0  0  0  0  0  0
   -1.2740    1.4660    1.9180 O   0  0  0  0  0  0  0  0  0  0  0  0
   -1.7490    2.6030    1.4630 C   0  0  0  0  0  0  0  0  0  0  0  0
   -1.0130    3.4450    0.4940 C   0  0  0  0  0  0  0  0  0  0  0  0
   -0.3420    2.7770   -0.6410 C   0  0  2  0  0  0  0  0  0  0  0  0
   -0.5330    3.6550   -1.8990 C   0  0  0  0  0  0  0  0  0  0  0  0
    0.0630    4.8790   -1.5750 O   0  0  0  0  0  0  0  0  0  0  0  0
   -0.9670    1.4780   -0.9560 C   0  0  0  0  0  0  0  0  0  0  0  0
   -0.4930    0.3200   -0.0710 C   0  0  2  0  0  0  0  0  0  0  0  0
   -1.4860   -0.8200   -0.3140 C   0  0  2  0  0  0  0  0  0  0  0  0
   -1.5450   -1.0370   -1.7100 O   0  0  0  0  0  0  0  0  0  0  0  0
   -2.8590   -0.6420    0.1610 C   0  0  0  0  0  0  0  0  0  0  0  0
   -3.2370   -1.1900    1.4990 C   0  0  0  0  0  0  0  0  0  0  0  0
   -2.6120   -2.3400    1.9000 O   0  0  0  0  0  0  0  0  0  0  0  0
   -2.9580   -3.3310    0.9810 C   0  0  0  0  0  0  0  0  0  0  0  0
   -1.9440   -3.2310   -0.1380 C   0  0  1  0  0  0  0  0  0  0  0  0
   -2.5170   -3.1060   -1.3780 O   0  0  0  0  0  0  0  0  0  0  0  0
   -0.8960   -2.1610    0.1400 C   0  0  0  0  0  0  0  0  0  0  0  0
    0.8670   -0.0200   -0.6400 C   0  0  0  0  0  0  0  0  0  0  0  0
  2  1  1  6
  2  3  1  0
  2  4  1  0
  2  5  1  0
  5  6  1  1
  5 26  1  0
  6  7  1  0
  8  7  1  6
  8  9  1  0
  8 16  1  0
  9 10  1  0
 10 11  1  0
 11 12  1  0
 12 13  1  6
 12 15  1  0
 13 14  1  0
 16 15  1  6
 16 17  1  0
 16 26  1  0
 17 18  1  6
 17 19  1  0
 17 25  1  0
 19 20  1  0
 20 21  1  0
 21 22  1  0
 22 23  1  0
 23 24  1  6
 23 25  1  0
M  END
