
     RDKit          3D

 26 29  0  0  0  0  0  0  0  0999 V2000
   -2.3170   -1.6160   -0.7750 C   0  0  0  0  0  0  0  0  0  0  0  0
   -1.7640   -0.2560   -0.3270 C   0  0  2  0  0  0  0  0  0  0  0  0
   -0.9980    0.4240   -1.3760 C   0  0  0  0  0  0  0  0  0  0  0  0
    0.3820    0.8450   -1.0930 C   0  0  2  0  0  0  0  0  0  0  0  0
    1.1690    0.6160   -2.2490 O   0  0  0  0  0  0  0  0  0  0  0  0
    1.1030    0.1980    0.0500 C   0  0  1  0  0  0  0  0  0  0  0  0
    0.3420   -0.9920    0.6170 C   0  0  1  0  0  0  0  0  0  0  0  0
    1.0370   -1.4330    1.8920 C   0  0  0  0  0  0  0  0  0  0  0  0
    2.4850   -1.7770    1.6410 C   0  0  0  0  0  0  0  0  0  0  0  0
    3.2050   -0.7090    0.9060 C   0  0  0  0  0  0  0  0  0  0  0  0
    4.3940   -0.3650    1.3620 C   0  0  0  0  0  0  0  0  0  0  0  0
    5.1180    0.6810    0.6560 C   0  0  0  0  0  0  0  0  0  0  0  0
    6.3780    0.6830    0.6320 O   0  0  0  0  0  0  0  0  0  0  0  0
    4.2900    1.7060   -0.0070 C   0  0  0  0  0  0  0  0  0  0  0  0
    3.1520    1.1470   -0.7830 C   0  0  0  0  0  0  0  0  0  0  0  0
    2.5500   -0.1200   -0.2790 C   0  0  2  0  0  0  0  0  0  0  0  0
    2.6350   -1.1670   -1.3770 C   0  0  0  0  0  0  0  0  0  0  0  0
   -0.9590   -0.4240    0.9710 C   0  0  2  0  0  0  0  0  0  0  0  0
   -1.9220   -1.1800    1.7650 C   0  0  0  0  0  0  0  0  0  0  0  0
   -3.2020   -0.3730    1.5160 C   0  0  0  0  0  0  0  0  0  0  0  0
   -2.9100    0.4920    0.2800 C   0  0  1  0  0  0  0  0  0  0  0  0
   -2.4220    1.7210    0.7210 O   0  0  0  0  0  0  0  0  0  0  0  0
   -4.0800    0.6350   -0.5910 C   0  0  0  0  0  0  0  0  0  0  0  0
   -4.6730   -0.3000   -1.0920 O   0  0  0  0  0  0  0  0  0  0  0  0
   -4.5820    2.0060   -0.8860 C   0  0  0  0  0  0  0  0  0  0  0  0
   -5.6950    1.9830   -1.7250 O   0  0  0  0  0  0  0  0  0  0  0  0
  2  1  1  6
  2  3  1  0
  2 18  1  0
  2 21  1  0
  3  4  1  0
  4  5  1  6
  6  4  1  6
  6  7  1  0
  6 16  1  0
  7  8  1  1
  7 18  1  0
  8  9  1  0
  9 10  1  0
 10 11  2  0
 10 16  1  0
 11 12  1  0
 12 13  2  0
 12 14  1  0
 14 15  1  0
 15 16  1  0
 16 17  1  6
 18 19  1  1
 19 20  1  0
 20 21  1  0
 21 22  1  1
 21 23  1  0
 23 24  2  0
 23 25  1  0
 25 26  1  0
M  END
