
     RDKit          3D

 26 28  0  0  0  0  0  0  0  0999 V2000
   -3.9690    3.0000   -0.2300 C   0  0  0  0  0  0  0  0  0  0  0  0
   -3.8860    2.2080    1.0310 C   0  0  0  0  0  0  0  0  0  0  0  0
   -3.5190    0.7590    0.8140 C   0  0  1  0  0  0  0  0  0  0  0  0
   -4.4610    0.1200    0.0080 O   0  0  0  0  0  0  0  0  0  0  0  0
   -4.2890   -1.2380   -0.0050 C   0  0  1  0  0  0  0  0  0  0  0  0
   -4.7650   -1.8710    1.2970 C   0  0  0  0  0  0  0  0  0  0  0  0
   -5.2210   -1.7950   -1.0910 C   0  0  0  0  0  0  0  0  0  0  0  0
   -4.8910   -1.2480   -2.3400 O   0  0  0  0  0  0  0  0  0  0  0  0
   -2.9160   -1.7090   -0.3200 C   0  0  0  0  0  0  0  0  0  0  0  0
   -1.8210   -0.9170    0.3450 C   0  0  1  0  0  0  0  0  0  0  0  0
   -0.5310   -1.2340   -0.3380 C   0  0  0  0  0  0  0  0  0  0  0  0
    0.6150   -0.3330    0.0910 C   0  0  1  0  0  0  0  0  0  0  0  0
    1.7220   -0.6140   -0.8840 C   0  0  2  0  0  0  0  0  0  0  0  0
    2.0470   -1.9550   -0.7890 O   0  0  0  0  0  0  0  0  0  0  0  0
    2.9430    0.2280   -0.6920 C   0  0  2  0  0  0  0  0  0  0  0  0
    3.9400   -0.1970   -1.7600 C   0  0  0  0  0  0  0  0  0  0  0  0
    4.8960   -1.2450   -1.2500 C   0  0  0  0  0  0  0  0  0  0  0  0
    5.6980   -0.7300   -0.2650 O   0  0  0  0  0  0  0  0  0  0  0  0
    5.1220    0.2410    0.5080 C   0  0  2  0  0  0  0  0  0  0  0  0
    5.4650    1.6440    0.0540 C   0  0  0  0  0  0  0  0  0  0  0  0
    5.6780    0.0730    1.9280 C   0  0  0  0  0  0  0  0  0  0  0  0
    3.6020    0.0660    0.6350 C   0  0  1  0  0  0  0  0  0  0  0  0
    3.1960    1.1070    1.4960 O   0  0  0  0  0  0  0  0  0  0  0  0
    0.1530    1.0960   -0.0820 C   0  0  0  0  0  0  0  0  0  0  0  0
   -1.0770    1.3520    0.7950 C   0  0  0  0  0  0  0  0  0  0  0  0
   -2.1880    0.5620    0.1900 C   0  0  2  0  0  0  0  0  0  0  0  0
  1  2  1  0
  3  2  1  6
  3  4  1  0
  3 26  1  0
  4  5  1  0
  5  6  1  1
  5  7  1  0
  5  9  1  0
  7  8  1  0
 10  9  1  6
 10 11  1  0
 10 26  1  0
 12 11  1  6
 12 13  1  0
 12 24  1  0
 13 14  1  1
 13 15  1  0
 15 16  1  6
 15 22  1  0
 16 17  1  0
 17 18  1  0
 18 19  1  0
 19 20  1  6
 19 21  1  0
 19 22  1  0
 22 23  1  1
 24 25  1  0
 26 25  1  1
M  END
