
     RDKit          3D

 26 29  0  0  0  0  0  0  0  0999 V2000
   -1.4880   -2.0370    2.0560 O   0  0  0  0  0  0  0  0  0  0  0  0
   -1.1230   -2.4350    0.7980 C   0  0  0  0  0  0  0  0  0  0  0  0
   -1.2800   -1.3540   -0.2650 C   0  0  2  0  0  0  0  0  0  0  0  0
   -2.7220   -1.0640   -0.4480 C   0  0  1  0  0  0  0  0  0  0  0  0
   -3.3410   -2.2780   -0.8290 O   0  0  0  0  0  0  0  0  0  0  0  0
   -3.4770   -0.5450    0.7150 C   0  0  1  0  0  0  0  0  0  0  0  0
   -2.9430    0.7640    1.2500 C   0  0  0  0  0  0  0  0  0  0  0  0
   -4.2030    1.5700    1.5850 C   0  0  0  0  0  0  0  0  0  0  0  0
   -5.0190    1.2880    0.3390 C   0  0  0  0  0  0  0  0  0  0  0  0
   -4.8900   -0.2160    0.2300 C   0  0  1  0  0  0  0  0  0  0  0  0
   -5.0570   -0.5310   -1.1170 O   0  0  0  0  0  0  0  0  0  0  0  0
   -0.8010   -2.0310   -1.5550 C   0  0  0  0  0  0  0  0  0  0  0  0
   -0.5320   -1.0660   -2.6540 C   0  0  0  0  0  0  0  0  0  0  0  0
   -0.2300    0.3280   -2.1830 C   0  0  0  0  0  0  0  0  0  0  0  0
    0.3750    0.2150   -0.7990 C   0  0  1  0  0  0  0  0  0  0  0  0
    1.7070   -0.4760   -0.8860 C   0  0  0  0  0  0  0  0  0  0  0  0
    2.8730    0.4710   -1.0720 C   0  0  0  0  0  0  0  0  0  0  0  0
    3.0510    1.4680    0.0090 C   0  0  2  0  0  0  0  0  0  0  0  0
    4.1990    1.2080    0.9420 C   0  0  2  0  0  0  0  0  0  0  0  0
    5.4930    1.1880    0.1680 C   0  0  0  0  0  0  0  0  0  0  0  0
    5.9200   -0.2330    0.2390 C   0  0  0  0  0  0  0  0  0  0  0  0
    4.9820   -0.9800    0.9040 O   0  0  0  0  0  0  0  0  0  0  0  0
    4.1770   -0.1100    1.6220 C   0  0  0  0  0  0  0  0  0  0  0  0
    1.7360    1.6260    0.7400 C   0  0  0  0  0  0  0  0  0  0  0  0
    0.6690    1.6590   -0.3610 C   0  0  0  0  0  0  0  0  0  0  0  0
   -0.4910   -0.3070    0.1070 O   0  0  0  0  0  0  0  0  0  0  0  0
  1  2  1  0
  3  2  1  1
  3  4  1  0
  3 12  1  0
  3 26  1  0
  4  5  1  1
  4  6  1  0
  6  7  1  6
  6 10  1  0
  7  8  1  0
  8  9  1  0
  9 10  1  0
 10 11  1  6
 12 13  1  0
 13 14  1  0
 15 14  1  6
 15 16  1  0
 15 25  1  0
 15 26  1  0
 16 17  1  0
 18 17  1  6
 18 19  1  0
 18 24  1  0
 19 20  1  6
 19 23  1  0
 20 21  1  0
 21 22  1  0
 22 23  1  0
 24 25  1  0
M  END
