
     RDKit          3D

 26 29  0  0  0  0  0  0  0  0999 V2000
   -1.6810   -2.8930    1.1070 C   0  0  0  0  0  0  0  0  0  0  0  0
   -2.3420   -1.6040    0.7420 C   0  0  0  0  0  0  0  0  0  0  0  0
   -1.7610   -0.9140   -0.4630 C   0  0  1  0  0  0  0  0  0  0  0  0
   -1.8720   -1.8340   -1.6840 C   0  0  0  0  0  0  0  0  0  0  0  0
   -3.1760   -2.1630   -1.9690 O   0  0  0  0  0  0  0  0  0  0  0  0
   -2.5020    0.3390   -0.8250 C   0  0  1  0  0  0  0  0  0  0  0  0
   -3.8500    0.1030   -1.3680 C   0  0  0  0  0  0  0  0  0  0  0  0
   -4.1470    0.4820   -2.5550 O   0  0  0  0  0  0  0  0  0  0  0  0
   -4.8570   -0.5230   -0.6590 O   0  0  0  0  0  0  0  0  0  0  0  0
   -2.5570    1.2230    0.3940 C   0  0  2  0  0  0  0  0  0  0  0  0
   -3.1220    2.5600   -0.0040 C   0  0  0  0  0  0  0  0  0  0  0  0
   -2.4900    3.4860    0.9930 C   0  0  0  0  0  0  0  0  0  0  0  0
   -1.0700    2.9640    1.0340 C   0  0  0  0  0  0  0  0  0  0  0  0
   -1.2000    1.4430    1.0010 C   0  0  2  0  0  0  0  0  0  0  0  0
   -0.0910    0.8740    0.1380 C   0  0  1  0  0  0  0  0  0  0  0  0
    1.2220    1.0900    0.8540 C   0  0  0  0  0  0  0  0  0  0  0  0
    2.1820   -0.0660    0.6050 C   0  0  2  0  0  0  0  0  0  0  0  0
    3.4020    0.1740    1.4520 C   0  0  0  0  0  0  0  0  0  0  0  0
    4.4450    0.5170    0.3940 C   0  0  0  0  0  0  0  0  0  0  0  0
    3.9270   -0.3300   -0.7700 C   0  0  2  0  0  0  0  0  0  0  0  0
    4.4160   -1.7250   -0.5620 C   0  0  0  0  0  0  0  0  0  0  0  0
    4.4700    0.1810   -2.0860 C   0  0  0  0  0  0  0  0  0  0  0  0
    2.5700   -0.1730   -0.6990 O   0  0  0  0  0  0  0  0  0  0  0  0
    1.4550   -1.2990    1.0290 C   0  0  0  0  0  0  0  0  0  0  0  0
    0.2800   -1.5110    0.4170 O   0  0  0  0  0  0  0  0  0  0  0  0
   -0.3070   -0.5350   -0.2980 C   0  0  1  0  0  0  0  0  0  0  0  0
  1  2  1  0
  3  2  1  1
  3  4  1  0
  3  6  1  0
  3 26  1  0
  4  5  1  0
  6  7  1  1
  6 10  1  0
  7  8  2  0
  7  9  1  0
 10 11  1  6
 10 14  1  0
 11 12  1  0
 12 13  1  0
 14 13  1  6
 14 15  1  0
 15 16  1  1
 15 26  1  0
 17 16  1  6
 17 18  1  0
 17 23  1  0
 17 24  1  0
 18 19  1  0
 19 20  1  0
 20 21  1  1
 20 22  1  0
 20 23  1  0
 24 25  1  0
 26 25  1  1
M  END
