
     RDKit          3D

 26 29  0  0  0  0  0  0  0  0999 V2000
   -4.1650   -0.9710    1.4180 O   0  0  0  0  0  0  0  0  0  0  0  0
   -2.8320   -1.0210    1.1280 C   0  0  1  0  0  0  0  0  0  0  0  0
   -2.4410   -2.4350    0.6460 C   0  0  0  0  0  0  0  0  0  0  0  0
   -1.1560   -2.4010   -0.1170 C   0  0  0  0  0  0  0  0  0  0  0  0
   -0.2360   -1.3740    0.4570 C   0  0  1  0  0  0  0  0  0  0  0  0
   -0.0090   -1.6770    1.8000 O   0  0  0  0  0  0  0  0  0  0  0  0
    1.1040   -1.3720   -0.2340 C   0  0  2  0  0  0  0  0  0  0  0  0
    1.8210   -2.6930   -0.1310 C   0  0  0  0  0  0  0  0  0  0  0  0
    3.1500   -2.5290   -0.8610 C   0  0  0  0  0  0  0  0  0  0  0  0
    3.2860   -1.2720   -1.4220 O   0  0  0  0  0  0  0  0  0  0  0  0
    3.2610   -0.2620   -0.4540 C   0  0  1  0  0  0  0  0  0  0  0  0
    4.4680   -0.4800    0.4330 C   0  0  0  0  0  0  0  0  0  0  0  0
    4.9280    0.8070    1.0760 C   0  0  0  0  0  0  0  0  0  0  0  0
    5.2730    1.8610    0.0570 C   0  0  1  0  0  0  0  0  0  0  0  0
    6.6390    2.0720   -0.0400 O   0  0  0  0  0  0  0  0  0  0  0  0
    4.7440    1.4690   -1.3090 C   0  0  0  0  0  0  0  0  0  0  0  0
    3.2860    1.0790   -1.1300 C   0  0  0  0  0  0  0  0  0  0  0  0
    2.0070   -0.3290    0.3920 C   0  0  0  0  0  0  0  0  0  0  0  0
   -0.7980    0.0250    0.3510 C   0  0  0  0  0  0  0  0  0  0  0  0
   -2.3190   -0.0870    0.0880 C   0  0  2  0  0  0  0  0  0  0  0  0
   -2.8930    1.2750    0.0250 C   0  0  0  0  0  0  0  0  0  0  0  0
   -4.3400    1.2960   -0.2550 C   0  0  1  0  0  0  0  0  0  0  0  0
   -4.8780    2.7490   -0.3220 C   0  0  0  0  0  0  0  0  0  0  0  0
   -6.2520    2.4600   -0.9070 C   0  0  0  0  0  0  0  0  0  0  0  0
   -6.0460    1.1230   -1.5680 C   0  0  0  0  0  0  0  0  0  0  0  0
   -4.6570    0.8950   -1.5670 O   0  0  0  0  0  0  0  0  0  0  0  0
  2  1  1  6
  2  3  1  0
  2 20  1  0
  3  4  1  0
  4  5  1  0
  5  6  1  1
  5  7  1  0
  5 19  1  0
  7  8  1  1
  7 18  1  0
  8  9  1  0
  9 10  1  0
 10 11  1  0
 11 12  1  1
 11 17  1  0
 11 18  1  0
 12 13  1  0
 13 14  1  0
 14 15  1  6
 14 16  1  0
 16 17  1  0
 19 20  1  0
 20 21  1  1
 22 21  1  6
 22 23  1  0
 22 26  1  0
 23 24  1  0
 24 25  1  0
 25 26  1  0
M  END
