
     RDKit          3D

 26 28  0  0  0  0  0  0  0  0999 V2000
   -1.6850    4.9670    1.3640 C   0  0  0  0  0  0  0  0  0  0  0  0
   -1.5430    4.0580    0.1620 C   0  0  2  0  0  0  0  0  0  0  0  0
   -2.7880    3.9510   -0.4270 O   0  0  0  0  0  0  0  0  0  0  0  0
   -0.9570    2.7140    0.5540 C   0  0  1  0  0  0  0  0  0  0  0  0
   -1.8250    2.0070    1.5570 C   0  0  0  0  0  0  0  0  0  0  0  0
   -1.5410    0.5550    1.6780 C   0  0  0  0  0  0  0  0  0  0  0  0
   -1.5100   -0.2030    0.3760 C   0  0  2  0  0  0  0  0  0  0  0  0
   -2.8300   -0.1300   -0.3440 C   0  0  0  0  0  0  0  0  0  0  0  0
   -3.8640   -1.0930    0.1300 C   0  0  0  0  0  0  0  0  0  0  0  0
   -3.8350   -2.2700   -0.6490 O   0  0  0  0  0  0  0  0  0  0  0  0
   -2.9390   -3.1960   -0.1770 C   0  0  0  0  0  0  0  0  0  0  0  0
   -1.5210   -2.6290   -0.3330 C   0  0  1  0  0  0  0  0  0  0  0  0
   -0.5940   -3.8270   -0.0800 C   0  0  0  0  0  0  0  0  0  0  0  0
   -1.3240   -2.2370   -1.6240 O   0  0  0  0  0  0  0  0  0  0  0  0
   -1.2390   -1.6250    0.7230 C   0  0  0  0  0  0  0  0  0  0  0  0
   -0.4650    0.4490   -0.5010 C   0  0  2  0  0  0  0  0  0  0  0  0
    0.8840   -0.0850   -0.0860 C   0  0  0  0  0  0  0  0  0  0  0  0
    2.0490    0.4610   -0.8590 C   0  0  2  0  0  0  0  0  0  0  0  0
    1.9480    0.1860   -2.2260 O   0  0  0  0  0  0  0  0  0  0  0  0
    3.3560   -0.1760   -0.4340 C   0  0  1  0  0  0  0  0  0  0  0  0
    3.5890   -0.1270    1.0380 C   0  0  0  0  0  0  0  0  0  0  0  0
    3.4340   -1.6360   -0.8570 C   0  0  0  0  0  0  0  0  0  0  0  0
    4.9300   -1.8750   -0.8060 C   0  0  0  0  0  0  0  0  0  0  0  0
    5.4770   -0.4930   -1.0670 C   0  0  0  0  0  0  0  0  0  0  0  0
    4.4150    0.3750   -1.1400 O   0  0  0  0  0  0  0  0  0  0  0  0
   -0.5700    1.9000   -0.6300 C   0  0  0  0  0  0  0  0  0  0  0  0
  2  1  1  1
  2  3  1  0
  2  4  1  0
  4  5  1  6
  4 26  1  0
  5  6  1  0
  7  6  1  1
  7  8  1  0
  7 15  1  0
  7 16  1  0
  8  9  1  0
  9 10  1  0
 10 11  1  0
 11 12  1  0
 12 13  1  1
 12 14  1  0
 12 15  1  0
 16 17  1  1
 16 26  1  0
 17 18  1  0
 18 19  1  6
 18 20  1  0
 20 21  1  1
 20 22  1  0
 20 25  1  0
 22 23  1  0
 23 24  1  0
 24 25  1  0
M  END
