
     RDKit          3D

 26 28  0  0  0  0  0  0  0  0999 V2000
    0.3320   -0.7590    2.8320 C   0  0  0  0  0  0  0  0  0  0  0  0
    0.1200   -1.4540    1.4860 C   0  0  2  0  0  0  0  0  0  0  0  0
    1.3610   -2.0980    1.0920 C   0  0  0  0  0  0  0  0  0  0  0  0
    1.8320   -1.8800   -0.2770 C   0  0  0  0  0  0  0  0  0  0  0  0
    1.6870   -0.4450   -0.7040 C   0  0  2  0  0  0  0  0  0  0  0  0
    2.1050   -0.5470   -2.0820 O   0  0  0  0  0  0  0  0  0  0  0  0
    2.6830    0.5010   -0.2050 C   0  0  2  0  0  0  0  0  0  0  0  0
    2.8360    0.8630    1.2050 C   0  0  0  0  0  0  0  0  0  0  0  0
    3.8890    1.8210    1.3420 O   0  0  0  0  0  0  0  0  0  0  0  0
    3.0320    1.6800   -1.0860 C   0  0  0  0  0  0  0  0  0  0  0  0
    4.5590    1.7820   -0.9280 C   0  0  0  0  0  0  0  0  0  0  0  0
    4.9310    0.7250   -0.1490 O   0  0  0  0  0  0  0  0  0  0  0  0
    4.0280   -0.2720   -0.5030 C   0  0  0  0  0  0  0  0  0  0  0  0
    0.2120   -0.1390   -0.6930 C   0  0  1  0  0  0  0  0  0  0  0  0
    0.1820    1.3950   -0.8860 C   0  0  0  0  0  0  0  0  0  0  0  0
   -0.3120   -0.6830   -2.0140 C   0  0  0  0  0  0  0  0  0  0  0  0
   -0.5750   -0.5130    0.4810 C   0  0  1  0  0  0  0  0  0  0  0  0
   -1.9600   -0.9970    0.4390 C   0  0  1  0  0  0  0  0  0  0  0  0
   -2.0520   -2.4760   -0.0160 C   0  0  0  0  0  0  0  0  0  0  0  0
   -2.2430   -1.1350    1.8580 O   0  0  0  0  0  0  0  0  0  0  0  0
   -3.1560   -0.3140    0.0680 C   0  0  2  0  0  0  0  0  0  0  0  0
   -3.5550    0.3040   -1.1720 C   0  0  0  0  0  0  0  0  0  0  0  0
   -4.8750    0.9950   -0.7780 C   0  0  0  0  0  0  0  0  0  0  0  0
   -5.0200    0.7760    0.5920 O   0  0  0  0  0  0  0  0  0  0  0  0
   -3.6880    0.7220    1.0840 C   0  0  2  0  0  0  0  0  0  0  0  0
   -3.1510    2.0890    0.8970 C   0  0  0  0  0  0  0  0  0  0  0  0
  2  1  1  1
  2  3  1  0
 17  2  1  6
  3  4  1  0
  4  5  1  0
  5  6  1  6
  5  7  1  0
  5 14  1  0
  7  8  1  1
  7 10  1  0
  7 13  1  0
  8  9  1  0
 10 11  1  0
 11 12  1  0
 12 13  1  0
 14 15  1  6
 14 16  1  0
 14 17  1  0
 17 18  1  0
 18 19  1  6
 18 20  1  0
 18 21  1  0
 21 22  1  6
 21 25  1  0
 22 23  1  0
 23 24  1  0
 24 25  1  0
 25 26  1  6
M  END
