
     RDKit          3D

 26 28  0  0  0  0  0  0  0  0999 V2000
    4.0740    0.2960   -2.1470 C   0  0  0  0  0  0  0  0  0  0  0  0
    2.8520   -0.1860   -1.4320 C   0  0  0  0  0  0  0  0  0  0  0  0
    2.8120    0.0340    0.0340 C   0  0  1  0  0  0  0  0  0  0  0  0
    1.5070   -0.5230    0.6460 C   0  0  2  0  0  0  0  0  0  0  0  0
    1.6630   -0.2940    2.0390 O   0  0  0  0  0  0  0  0  0  0  0  0
    1.4650   -2.0240    0.5300 C   0  0  0  0  0  0  0  0  0  0  0  0
    0.2500   -2.4290    1.3350 C   0  0  0  0  0  0  0  0  0  0  0  0
   -0.9270   -2.0190    0.4360 C   0  0  0  0  0  0  0  0  0  0  0  0
   -1.0140   -0.5240    0.2940 C   0  0  2  0  0  0  0  0  0  0  0  0
    0.2910    0.1950    0.2400 C   0  0  0  0  0  0  0  0  0  0  0  0
   -1.6410   -0.1090    1.4900 O   0  0  0  0  0  0  0  0  0  0  0  0
   -2.9720   -0.2800    1.5700 C   0  0  0  0  0  0  0  0  0  0  0  0
   -3.8030    0.5010    0.5790 C   0  0  1  0  0  0  0  0  0  0  0  0
   -5.0560   -0.2510    0.2760 C   0  0  0  0  0  0  0  0  0  0  0  0
   -4.2160    1.8590    1.1650 C   0  0  0  0  0  0  0  0  0  0  0  0
   -4.9680    2.5390    0.2390 O   0  0  0  0  0  0  0  0  0  0  0  0
   -2.9550    0.7910   -0.6140 C   0  0  1  0  0  0  0  0  0  0  0  0
   -2.3970    2.0740   -0.5670 O   0  0  0  0  0  0  0  0  0  0  0  0
   -1.9150   -0.2580   -0.8930 C   0  0  2  0  0  0  0  0  0  0  0  0
   -2.6320   -1.4970   -1.3740 C   0  0  0  0  0  0  0  0  0  0  0  0
   -1.1320    0.2350   -2.1180 C   0  0  0  0  0  0  0  0  0  0  0  0
    4.0060   -0.5460    0.7580 C   0  0  0  0  0  0  0  0  0  0  0  0
    4.8710    0.5820    1.2310 C   0  0  0  0  0  0  0  0  0  0  0  0
    4.3950    1.8040    0.5420 C   0  0  0  0  0  0  0  0  0  0  0  0
    2.9370    1.5040    0.3200 C   0  0  2  0  0  0  0  0  0  0  0  0
    2.3310    1.8720    1.5240 O   0  0  0  0  0  0  0  0  0  0  0  0
  1  2  1  0
  3  2  1  6
  3  4  1  0
  3 22  1  0
  3 25  1  0
  4  5  1  1
  4  6  1  0
  4 10  1  0
  6  7  1  0
  7  8  1  0
  9  8  1  1
  9 10  1  0
  9 11  1  0
  9 19  1  0
 11 12  1  0
 12 13  1  0
 13 14  1  6
 13 15  1  0
 13 17  1  0
 15 16  1  0
 17 18  1  1
 17 19  1  0
 19 20  1  6
 19 21  1  0
 22 23  1  0
 23 24  1  0
 24 25  1  0
 25 26  1  1
M  END
