
     RDKit          3D

 35 39  0  0  0  0  0  0  0  0999 V2000
   -0.6820   -0.6640    2.5510 C   0  0  0  0  0  0  0  0  0  0  0  0
    0.1560   -1.0690    1.3330 C   0  0  2  0  0  0  0  0  0  0  0  0
    0.6530    0.0780    0.5930 C   0  0  0  0  0  0  0  0  0  0  0  0
    1.9410    0.6960    0.5990 C   0  0  1  0  0  0  0  0  0  0  0  0
    3.1310   -0.0060   -0.0110 C   0  0  1  0  0  0  0  0  0  0  0  0
    3.5460   -1.2360    0.7370 C   0  0  0  0  0  0  0  0  0  0  0  0
    3.3280   -2.5070    0.0310 C   0  0  0  0  0  0  0  0  0  0  0  0
    3.5150   -2.5840   -1.2790 C   0  0  0  0  0  0  0  0  0  0  0  0
    3.1490   -3.9730   -1.2380 C   0  0  0  0  0  0  0  0  0  0  0  0
    2.9580   -3.9160    0.0610 C   0  0  0  0  0  0  0  0  0  0  0  0
    3.9470   -1.3010   -1.9240 C   0  0  2  0  0  0  0  0  0  0  0  0
    5.3710   -1.0500   -1.5520 C   0  0  0  0  0  0  0  0  0  0  0  0
    2.9950   -0.2050   -1.4910 C   0  0  0  0  0  0  0  0  0  0  0  0
    1.8160    2.0710   -0.0140 C   0  0  0  0  0  0  0  0  0  0  0  0
    2.9080    2.4770   -0.6080 O   0  0  0  0  0  0  0  0  0  0  0  0
    0.7370    3.0060   -0.0640 C   0  0  0  0  0  0  0  0  0  0  0  0
   -0.4470    3.0130   -0.6130 C   0  0  0  0  0  0  0  0  0  0  0  0
   -1.2640    4.2780   -0.3670 C   0  0  0  0  0  0  0  0  0  0  0  0
   -1.3290    4.6000    1.1060 C   0  0  0  0  0  0  0  0  0  0  0  0
    0.0420    4.4800    1.7520 C   0  0  0  0  0  0  0  0  0  0  0  0
    1.0590    4.3440    0.6250 C   0  0  0  0  0  0  0  0  0  0  0  0
   -1.1640    2.0420   -1.4740 C   0  0  1  0  0  0  0  0  0  0  0  0
   -0.2860    1.4810   -2.5750 C   0  0  0  0  0  0  0  0  0  0  0  0
   -1.9220    1.0780   -0.9350 O   0  0  0  0  0  0  0  0  0  0  0  0
   -2.7220    0.5900   -0.0230 C   0  0  0  0  0  0  0  0  0  0  0  0
   -3.3230    1.2360    0.9280 O   0  0  0  0  0  0  0  0  0  0  0  0
   -3.0690   -0.8410    0.0490 C   0  0  2  0  0  0  0  0  0  0  0  0
   -3.9740   -1.0550   -1.1860 C   0  0  0  0  0  0  0  0  0  0  0  0
   -4.0000   -1.1380    1.2290 C   0  0  0  0  0  0  0  0  0  0  0  0
   -4.4610   -2.5360    1.2980 C   0  0  0  0  0  0  0  0  0  0  0  0
   -3.4130   -3.5640    0.9630 C   0  0  0  0  0  0  0  0  0  0  0  0
   -2.6320   -3.1590   -0.2430 C   0  0  0  0  0  0  0  0  0  0  0  0
   -2.0470   -1.8260    0.1000 N   0  0  0  0  0  0  0  0  0  0  0  0
   -0.7120   -1.8520    0.3700 C   0  0  0  0  0  0  0  0  0  0  0  0
   -0.0110   -2.6970   -0.3100 O   0  0  0  0  0  0  0  0  0  0  0  0
  2  1  1  1
  2  3  1  0
  2 34  1  0
  4  3  1  6
  4  5  1  0
  4 14  1  0
  5  6  1  1
  5 13  1  0
  6  7  1  0
  7  8  2  0
  7 10  1  0
  8  9  1  0
  8 11  1  0
  9 10  2  0
 11 12  1  1
 11 13  1  0
 14 15  2  0
 14 16  1  0
 16 17  2  0
 16 21  1  0
 17 18  1  0
 17 22  1  0
 18 19  1  0
 19 20  1  0
 20 21  1  0
 22 23  1  1
 22 24  1  0
 24 25  1  0
 25 26  2  0
 25 27  1  0
 27 28  1  6
 27 29  1  0
 27 33  1  0
 29 30  1  0
 30 31  1  0
 31 32  1  0
 32 33  1  0
 33 34  1  0
 34 35  2  0
M  END
