
     RDKit          3D

 35 39  0  0  0  0  0  0  0  0999 V2000
    5.2040    1.2420    1.7560 C   0  0  0  0  0  0  0  0  0  0  0  0
    4.9510    0.4680    0.4410 C   0  0  1  0  0  0  0  0  0  0  0  0
    6.2310   -0.1730    0.0940 C   0  0  0  0  0  0  0  0  0  0  0  0
    6.2300   -1.7010    0.1670 C   0  0  0  0  0  0  0  0  0  0  0  0
    5.1370   -2.1410   -0.7480 C   0  0  0  0  0  0  0  0  0  0  0  0
    3.8350   -1.6130   -0.3010 C   0  0  0  0  0  0  0  0  0  0  0  0
    3.7910   -0.5030    0.6970 C   0  0  2  0  0  0  0  0  0  0  0  0
    2.5880    0.2070    0.5590 O   0  0  0  0  0  0  0  0  0  0  0  0
    1.8640    0.4750    1.6520 C   0  0  1  0  0  0  0  0  0  0  0  0
    1.4010    1.9480    1.6120 C   0  0  0  0  0  0  0  0  0  0  0  0
    0.5170    2.2160    0.4540 C   0  0  0  0  0  0  0  0  0  0  0  0
    0.1450    1.0960   -0.4570 C   0  0  2  0  0  0  0  0  0  0  0  0
   -0.9730    1.4490   -1.2640 O   0  0  0  0  0  0  0  0  0  0  0  0
   -1.4180    2.7370   -1.5820 C   0  0  0  0  0  0  0  0  0  0  0  0
   -1.1240    3.4030   -2.6660 O   0  0  0  0  0  0  0  0  0  0  0  0
   -2.2990    3.4430   -0.6480 C   0  0  0  0  0  0  0  0  0  0  0  0
   -2.1340    4.6270   -0.2610 C   0  0  0  0  0  0  0  0  0  0  0  0
   -2.9120    5.4350    0.6760 C   0  0  0  0  0  0  0  0  0  0  0  0
   -4.1480    4.7290    1.1070 C   0  0  0  0  0  0  0  0  0  0  0  0
   -4.3270    3.3820    0.6600 C   0  0  0  0  0  0  0  0  0  0  0  0
   -3.6010    2.6910   -0.1130 C   0  0  0  0  0  0  0  0  0  0  0  0
   -3.6550    1.4870   -0.6140 C   0  0  0  0  0  0  0  0  0  0  0  0
   -3.7230    0.3850   -1.0650 C   0  0  0  0  0  0  0  0  0  0  0  0
   -3.7990   -0.8760   -1.5550 C   0  0  0  0  0  0  0  0  0  0  0  0
   -3.3310   -1.7850   -0.4210 C   0  0  1  0  0  0  0  0  0  0  0  0
   -4.0290   -3.0550   -0.2550 C   0  0  2  0  0  0  0  0  0  0  0  0
   -3.8500   -3.4740    1.2540 C   0  0  0  0  0  0  0  0  0  0  0  0
   -3.5860   -4.2320   -1.0860 C   0  0  0  0  0  0  0  0  0  0  0  0
   -2.0480   -4.2290   -1.2100 C   0  0  0  0  0  0  0  0  0  0  0  0
   -1.6890   -2.8600   -1.8210 C   0  0  0  0  0  0  0  0  0  0  0  0
   -1.8600   -1.9010   -0.7080 N   0  0  0  0  0  0  0  0  0  0  0  0
   -0.7990   -1.2930   -0.1480 C   0  0  0  0  0  0  0  0  0  0  0  0
   -0.2710   -2.3510    0.7400 O   0  0  0  0  0  0  0  0  0  0  0  0
    0.1160   -0.2390    0.1150 C   0  0  2  0  0  0  0  0  0  0  0  0
    0.4760   -0.2360    1.6260 C   0  0  0  0  0  0  0  0  0  0  0  0
  2  1  1  1
  2  3  1  0
  2  7  1  0
  3  4  1  0
  4  5  1  0
  5  6  1  0
  6  7  1  0
  7  8  1  6
  9  8  1  6
  9 10  1  0
  9 35  1  0
 10 11  1  0
 12 11  1  1
 12 13  1  0
 12 34  1  0
 13 14  1  0
 14 15  2  0
 14 16  1  0
 16 17  2  0
 16 21  1  0
 17 18  1  0
 18 19  1  0
 19 20  1  0
 20 21  2  0
 21 22  1  0
 22 23  3  0
 23 24  1  0
 25 24  1  6
 25 26  1  0
 25 31  1  0
 26 27  1  1
 26 28  1  0
 28 29  1  0
 29 30  1  0
 30 31  1  0
 31 32  1  0
 32 33  2  0
 32 34  1  0
 34 35  1  1
M  END
