
     RDKit          3D

 35 38  0  0  0  0  0  0  0  0999 V2000
   -0.1990    1.6090   -1.5940 C   0  0  0  0  0  0  0  0  0  0  0  0
    0.8070    1.0000   -0.6680 C   0  0  0  0  0  0  0  0  0  0  0  0
    1.9430    1.5710   -0.4460 N   0  0  0  0  0  0  0  0  0  0  0  0
    2.8820    0.9990    0.4270 C   0  0  0  0  0  0  0  0  0  0  0  0
    3.9590    1.7500    0.6390 C   0  0  0  0  0  0  0  0  0  0  0  0
    3.8970    3.0490   -0.1270 C   0  0  0  0  0  0  0  0  0  0  0  0
    5.1770    1.6210    1.4500 C   0  0  2  0  0  0  0  0  0  0  0  0
    6.3750    1.3190    0.6700 C   0  0  0  0  0  0  0  0  0  0  0  0
    6.5020    0.1080   -0.1490 C   0  0  2  0  0  0  0  0  0  0  0  0
    7.9200    0.2310   -0.7720 C   0  0  0  0  0  0  0  0  0  0  0  0
    5.5920   -0.0480   -1.3140 C   0  0  0  0  0  0  0  0  0  0  0  0
    6.6110   -1.1740    0.6900 C   0  0  0  0  0  0  0  0  0  0  0  0
    4.9950    0.8640    2.7320 C   0  0  0  0  0  0  0  0  0  0  0  0
    4.3750   -0.3470    2.6460 O   0  0  0  0  0  0  0  0  0  0  0  0
    2.9730   -0.2020    2.5190 C   0  0  0  0  0  0  0  0  0  0  0  0
    2.6710   -0.3310    1.0620 C   0  0  1  0  0  0  0  0  0  0  0  0
    1.3400   -0.8850    0.7450 C   0  0  0  0  0  0  0  0  0  0  0  0
    0.4530   -0.2870   -0.0600 C   0  0  0  0  0  0  0  0  0  0  0  0
   -0.8450   -0.8950   -0.3210 C   0  0  0  0  0  0  0  0  0  0  0  0
   -1.1030   -2.0050    0.2630 O   0  0  0  0  0  0  0  0  0  0  0  0
   -1.8330   -0.4170   -1.1260 O   0  0  0  0  0  0  0  0  0  0  0  0
   -3.0810   -1.0540   -1.3320 C   0  0  2  0  0  0  0  0  0  0  0  0
   -3.1380   -1.5190   -2.7670 C   0  0  1  0  0  0  0  0  0  0  0  0
   -3.0090   -0.6220   -3.9170 C   0  0  0  0  0  0  0  0  0  0  0  0
   -1.9050   -1.5820   -3.6260 C   0  0  0  0  0  0  0  0  0  0  0  0
   -4.2660   -0.2210   -0.9150 C   0  0  2  0  0  0  0  0  0  0  0  0
   -4.2720    1.0390   -1.7550 C   0  0  0  0  0  0  0  0  0  0  0  0
   -4.0740    0.2350    0.5130 C   0  0  0  0  0  0  0  0  0  0  0  0
   -5.4040    0.6370    1.1100 C   0  0  2  0  0  0  0  0  0  0  0  0
   -5.2180    1.1270    2.5370 C   0  0  0  0  0  0  0  0  0  0  0  0
   -6.2840   -0.5750    1.1170 C   0  0  0  0  0  0  0  0  0  0  0  0
   -6.0660   -1.4640   -0.0780 C   0  0  2  0  0  0  0  0  0  0  0  0
   -7.4730   -1.8650   -0.5600 C   0  0  0  0  0  0  0  0  0  0  0  0
   -5.4050   -2.7700    0.3370 C   0  0  0  0  0  0  0  0  0  0  0  0
   -5.4620   -0.8530   -1.1300 O   0  0  0  0  0  0  0  0  0  0  0  0
  1  2  1  0
  2  3  2  0
  2 18  1  0
  3  4  1  0
  4  5  2  0
  4 16  1  0
  5  6  1  0
  5  7  1  0
  7  8  1  6
  7 13  1  0
  8  9  1  0
  9 10  1  6
  9 11  1  0
  9 12  1  0
 13 14  1  0
 14 15  1  0
 16 15  1  1
 16 17  1  0
 17 18  2  0
 18 19  1  0
 19 20  2  0
 19 21  1  0
 22 21  1  6
 22 23  1  0
 22 26  1  0
 23 24  1  6
 23 25  1  0
 24 25  1  0
 26 27  1  6
 26 28  1  0
 26 35  1  0
 28 29  1  0
 29 30  1  1
 29 31  1  0
 31 32  1  0
 32 33  1  6
 32 34  1  0
 32 35  1  0
M  END
