
     RDKit          3D

 35 39  0  0  0  0  0  0  0  0999 V2000
    9.4160    1.6540   -0.2020 C   0  0  0  0  0  0  0  0  0  0  0  0
    8.4710    0.8390    0.5980 C   0  0  0  0  0  0  0  0  0  0  0  0
    7.1500    0.9480    0.4350 C   0  0  0  0  0  0  0  0  0  0  0  0
    6.6520    1.9160   -0.5760 C   0  0  0  0  0  0  0  0  0  0  0  0
    5.6340    1.2090   -1.4090 C   0  0  0  0  0  0  0  0  0  0  0  0
    5.3660    1.6140   -2.5070 O   0  0  0  0  0  0  0  0  0  0  0  0
    4.9690   -0.0010   -0.8390 C   0  0  0  0  0  0  0  0  0  0  0  0
    4.8250    0.2820    0.6500 C   0  0  1  0  0  0  0  0  0  0  0  0
    3.7960   -0.5100    1.3130 C   0  0  0  0  0  0  0  0  0  0  0  0
    4.1980   -1.4160    2.1200 O   0  0  0  0  0  0  0  0  0  0  0  0
    2.4150   -0.3060    1.0900 N   0  0  0  0  0  0  0  0  0  0  0  0
    1.4580   -1.1630    1.7720 C   0  0  0  0  0  0  0  0  0  0  0  0
    0.0380   -0.8570    1.4540 C   0  0  0  0  0  0  0  0  0  0  0  0
   -0.2570   -0.4330    0.0610 C   0  0  2  0  0  0  0  0  0  0  0  0
   -1.1020   -1.4020   -0.7200 C   0  0  2  0  0  0  0  0  0  0  0  0
   -2.4640   -1.6430   -0.1390 C   0  0  1  0  0  0  0  0  0  0  0  0
   -3.2590   -0.3690   -0.0590 C   0  0  0  0  0  0  0  0  0  0  0  0
   -4.6900   -0.6940    0.3820 C   0  0  1  0  0  0  0  0  0  0  0  0
   -5.4830    0.5340    0.4880 C   0  0  0  0  0  0  0  0  0  0  0  0
   -6.0310    0.9220    1.6920 C   0  0  0  0  0  0  0  0  0  0  0  0
   -6.7880    2.0790    1.8310 C   0  0  0  0  0  0  0  0  0  0  0  0
   -7.0140    2.8800    0.7510 C   0  0  0  0  0  0  0  0  0  0  0  0
   -7.8290    4.1200    0.9170 C   0  0  0  0  0  0  0  0  0  0  0  0
   -6.4890    2.5330   -0.4600 C   0  0  0  0  0  0  0  0  0  0  0  0
   -5.7310    1.3710   -0.5920 C   0  0  0  0  0  0  0  0  0  0  0  0
   -5.2450   -1.6730   -0.6150 C   0  0  0  0  0  0  0  0  0  0  0  0
   -4.3520   -2.9180   -0.5320 C   0  0  0  0  0  0  0  0  0  0  0  0
   -3.0870   -2.5850   -0.9660 O   0  0  0  0  0  0  0  0  0  0  0  0
   -0.3420   -2.7320   -0.8300 C   0  0  0  0  0  0  0  0  0  0  0  0
   -0.6830   -3.1690   -2.2170 C   0  0  0  0  0  0  0  0  0  0  0  0
   -1.5260   -2.2210   -2.7730 O   0  0  0  0  0  0  0  0  0  0  0  0
   -1.1580   -1.0060   -2.1750 C   0  0  0  0  0  0  0  0  0  0  0  0
    0.9440    0.0090   -0.7400 C   0  0  0  0  0  0  0  0  0  0  0  0
    1.9020    0.7140    0.2310 C   0  0  0  0  0  0  0  0  0  0  0  0
    6.2100    0.1300    1.2380 C   0  0  0  0  0  0  0  0  0  0  0  0
  1  2  1  0
  2  3  2  3
  3  4  1  0
  3 35  1  0
  4  5  1  0
  5  6  2  0
  5  7  1  0
  7  8  1  0
  8  9  1  1
  8 35  1  0
  9 10  2  0
  9 11  1  0
 11 12  1  0
 11 34  1  0
 12 13  1  0
 14 13  1  1
 14 15  1  0
 14 33  1  0
 15 16  1  0
 15 29  1  6
 15 32  1  0
 16 17  1  6
 16 28  1  0
 17 18  1  0
 18 19  1  6
 18 26  1  0
 19 20  2  0
 19 25  1  0
 20 21  1  0
 21 22  2  0
 22 23  1  0
 22 24  1  0
 24 25  2  0
 26 27  1  0
 27 28  1  0
 29 30  1  0
 30 31  1  0
 31 32  1  0
 33 34  1  0
M  END
