
     RDKit          3D

 35 39  0  0  0  0  0  0  0  0999 V2000
    9.7230    0.9490    1.9610 C   0  0  0  0  0  0  0  0  0  0  0  0
    9.0690    0.3740    0.8460 O   0  0  0  0  0  0  0  0  0  0  0  0
    9.1620    0.8450   -0.4510 C   0  0  0  0  0  0  0  0  0  0  0  0
   10.4090    1.5150   -0.8650 C   0  0  0  0  0  0  0  0  0  0  0  0
    8.1680    0.6980   -1.2870 C   0  0  0  0  0  0  0  0  0  0  0  0
    6.8950    0.0550   -0.9870 C   0  0  0  0  0  0  0  0  0  0  0  0
    6.8250   -1.0330   -0.1420 C   0  0  0  0  0  0  0  0  0  0  0  0
    5.6140   -1.6660    0.1450 C   0  0  0  0  0  0  0  0  0  0  0  0
    4.4410   -1.2180   -0.4120 C   0  0  0  0  0  0  0  0  0  0  0  0
    3.1580   -1.8820   -0.1330 C   0  0  2  0  0  0  0  0  0  0  0  0
    2.4890   -2.4550   -1.3150 C   0  0  0  0  0  0  0  0  0  0  0  0
    1.0020   -2.0760   -1.3200 C   0  0  0  0  0  0  0  0  0  0  0  0
    0.8720   -0.5650   -1.3310 C   0  0  1  0  0  0  0  0  0  0  0  0
   -0.5690   -0.2040   -1.3610 C   0  0  0  0  0  0  0  0  0  0  0  0
   -0.8710    0.2910    0.0120 C   0  0  1  0  0  0  0  0  0  0  0  0
   -1.4810    1.6730   -0.0420 C   0  0  0  0  0  0  0  0  0  0  0  0
   -2.7710    1.6720   -0.8250 C   0  0  0  0  0  0  0  0  0  0  0  0
   -3.6880    0.7580   -0.1760 N   0  0  0  0  0  0  0  0  0  0  0  0
   -5.0350    0.6490   -0.5970 C   0  0  0  0  0  0  0  0  0  0  0  0
   -5.3790    1.3860   -1.5710 O   0  0  0  0  0  0  0  0  0  0  0  0
   -5.9860   -0.2710    0.0600 C   0  0  1  0  0  0  0  0  0  0  0  0
   -6.2400    0.0770    1.5090 C   0  0  0  0  0  0  0  0  0  0  0  0
   -7.6920    0.4030    1.5830 C   0  0  2  0  0  0  0  0  0  0  0  0
   -7.9150    1.5980    2.4950 C   0  0  0  0  0  0  0  0  0  0  0  0
   -8.4200   -0.7960    2.1580 C   0  0  0  0  0  0  0  0  0  0  0  0
   -8.0750    0.6880    0.3010 O   0  0  0  0  0  0  0  0  0  0  0  0
   -7.3770   -0.2070   -0.5120 C   0  0  1  0  0  0  0  0  0  0  0  0
   -7.4560    0.1560   -1.9540 C   0  0  0  0  0  0  0  0  0  0  0  0
   -3.2130   -0.0480    0.9080 C   0  0  0  0  0  0  0  0  0  0  0  0
   -1.8470   -0.6190    0.7180 C   0  0  0  0  0  0  0  0  0  0  0  0
    0.2780    0.3320    0.7430 O   0  0  0  0  0  0  0  0  0  0  0  0
    1.3660   -0.0640   -0.0290 C   0  0  1  0  0  0  0  0  0  0  0  0
    2.2060   -1.0670    0.6870 C   0  0  0  0  0  0  0  0  0  0  0  0
    4.4930   -0.1390   -1.2530 C   0  0  0  0  0  0  0  0  0  0  0  0
    5.7050    0.5010   -1.5460 C   0  0  0  0  0  0  0  0  0  0  0  0
  1  2  1  0
  2  3  1  0
  3  4  1  0
  3  5  2  3
  5  6  1  0
  6  7  2  0
  6 35  1  0
  7  8  1  0
  8  9  2  0
 10  9  1  6
  9 34  1  0
 10 11  1  0
 10 33  1  0
 11 12  1  0
 13 12  1  1
 13 14  1  0
 13 32  1  0
 15 14  1  6
 15 16  1  0
 15 30  1  0
 15 31  1  0
 16 17  1  0
 17 18  1  0
 18 19  1  0
 18 29  1  0
 19 20  2  0
 21 19  1  6
 21 22  1  0
 21 27  1  0
 22 23  1  0
 23 24  1  1
 23 25  1  0
 23 26  1  0
 26 27  1  0
 27 28  1  6
 29 30  1  0
 31 32  1  0
 32 33  1  1
 34 35  2  0
M  END
