
     RDKit          3D

 16 15  0  0  0  0  0  0  0  0999 V2000
   -4.5030    0.8080   -0.7960 C   0  0  0  0  0  0  0  0  0  0  0  0
   -3.5260    0.6950    0.3540 C   0  0  0  0  0  0  0  0  0  0  0  0
   -2.1820    1.2700   -0.0360 C   0  0  0  0  0  0  0  0  0  0  0  0
   -1.1760    1.1830    1.0650 C   0  0  0  0  0  0  0  0  0  0  0  0
   -0.9060   -0.2300    1.5090 C   0  0  0  0  0  0  0  0  0  0  0  0
   -0.3740   -1.0940    0.3820 C   0  0  0  0  0  0  0  0  0  0  0  0
    0.9120   -0.5740   -0.1690 C   0  0  2  0  0  0  0  0  0  0  0  0
    1.4970   -1.3730   -1.2830 C   0  0  0  0  0  0  0  0  0  0  0  0
    1.8260   -2.7700   -0.9550 C   0  0  0  0  0  0  0  0  0  0  0  0
    1.6450   -3.2420    0.1860 O   0  0  0  0  0  0  0  0  0  0  0  0
    2.3510   -3.5850   -1.9370 O   0  0  0  0  0  0  0  0  0  0  0  0
    2.1450   -0.3060    1.1510 S   0  0  0  0  0  0  0  0  0  0  0  0
    3.6720    0.3130    0.4090 C   0  0  0  0  0  0  0  0  0  0  0  0
    3.5140    1.6550   -0.1770 C   0  0  0  0  0  0  0  0  0  0  0  0
    2.4170    2.2410   -0.1290 O   0  0  0  0  0  0  0  0  0  0  0  0
    4.5910    2.2610   -0.7800 O   0  0  0  0  0  0  0  0  0  0  0  0
  1  2  1  0
  2  3  1  0
  3  4  1  0
  4  5  1  0
  5  6  1  0
  7  6  1  1
  7  8  1  0
  7 12  1  0
  8  9  1  0
  9 10  2  0
  9 11  1  0
 12 13  1  0
 13 14  1  0
 14 15  2  0
 14 16  1  0
M  END
