
     RDKit          3D

 12 12  0  0  0  0  0  0  0  0999 V2000
   -3.7260    0.4960    0.3510 C   0  0  0  0  0  0  0  0  0  0  0  0
   -2.4570   -0.2260   -0.1390 C   0  0  1  0  0  0  0  0  0  0  0  0
   -1.9160    0.5580   -1.2790 C   0  0  0  0  0  0  0  0  0  0  0  0
   -0.5590    1.1180   -1.0070 C   0  0  0  0  0  0  0  0  0  0  0  0
   -0.2420    2.2830   -1.3930 O   0  0  0  0  0  0  0  0  0  0  0  0
    0.3940    0.2830   -0.2830 C   0  0  0  0  0  0  0  0  0  0  0  0
    1.8170    0.3780   -0.6650 C   0  0  0  0  0  0  0  0  0  0  0  0
    2.7640   -0.4600    0.0960 C   0  0  0  0  0  0  0  0  0  0  0  0
    4.1080   -0.1990   -0.4580 N   0  0  0  0  0  0  0  0  0  0  0  0
   -0.0970   -0.4870    0.6700 C   0  0  0  0  0  0  0  0  0  0  0  0
    0.8290   -1.2900    1.3620 O   0  0  0  0  0  0  0  0  0  0  0  0
   -1.5240   -0.4980    0.9830 C   0  0  0  0  0  0  0  0  0  0  0  0
  2  1  1  1
  2  3  1  0
  2 12  1  0
  3  4  1  0
  4  5  2  0
  4  6  1  0
  6  7  1  0
  6 10  2  0
  7  8  1  0
  8  9  1  0
 10 11  1  0
 10 12  1  0
M  CHG  1   9   1
M  END
