
     RDKit          3D

 12 12  0  0  0  0  0  0  0  0999 V2000
    3.2510    1.8520   -1.5310 O   0  0  0  0  0  0  0  0  0  0  0  0
    2.4820    0.6770   -1.4480 C   0  0  0  0  0  0  0  0  0  0  0  0
    2.0900    0.4940    0.0030 C   0  0  0  0  0  0  0  0  0  0  0  0
    1.3020   -0.6660    0.2370 N   0  0  0  0  0  0  0  0  0  0  0  0
   -0.0550   -0.4060    0.6350 C   0  0  1  0  0  0  0  0  0  0  0  0
   -0.1240   -0.6140    2.1430 C   0  0  0  0  0  0  0  0  0  0  0  0
   -1.3710   -0.3970    2.6610 O   0  0  0  0  0  0  0  0  0  0  0  0
   -0.5610    0.9430    0.2800 C   0  0  0  0  0  0  0  0  0  0  0  0
   -2.0750    0.9000    0.0440 C   0  0  0  0  0  0  0  0  0  0  0  0
   -2.3640    0.1880   -1.2690 C   0  0  0  0  0  0  0  0  0  0  0  0
   -1.4290   -1.0000   -1.3760 C   0  0  0  0  0  0  0  0  0  0  0  0
   -0.9610   -1.4490    0.0050 C   0  0  0  0  0  0  0  0  0  0  0  0
  1  2  1  0
  2  3  1  0
  3  4  1  0
  4  5  1  0
  5  6  1  1
  5  8  1  0
  5 12  1  0
  6  7  1  0
  8  9  1  0
  9 10  1  0
 10 11  1  0
 11 12  1  0
M  CHG  1   4   1
M  END
