
     RDKit          3D

 13 13  0  0  0  0  0  0  0  0999 V2000
    3.4420    0.7290   -0.1130 N   0  0  0  0  0  0  0  0  0  0  0  0
    2.6260   -0.3390   -0.6180 C   0  0  0  0  0  0  0  0  0  0  0  0
    1.2690   -0.3900    0.1020 C   0  0  2  0  0  0  0  0  0  0  0  0
    1.5930   -0.5980    1.4620 O   0  0  0  0  0  0  0  0  0  0  0  0
    0.5890   -1.6070   -0.4060 C   0  0  0  0  0  0  0  0  0  0  0  0
   -0.7710   -1.8690    0.1160 C   0  0  0  0  0  0  0  0  0  0  0  0
   -1.8800   -1.3120   -0.7470 C   0  0  0  0  0  0  0  0  0  0  0  0
   -2.6350   -0.3000    0.1180 C   0  0  0  0  0  0  0  0  0  0  0  0
   -1.7100    0.8870    0.2780 C   0  0  2  0  0  0  0  0  0  0  0  0
   -2.5170    2.1640    0.1780 C   0  0  0  0  0  0  0  0  0  0  0  0
   -1.7520    3.2830    0.3120 F   0  0  0  0  0  0  0  0  0  0  0  0
   -0.6620    0.8640   -0.6320 O   0  0  0  0  0  0  0  0  0  0  0  0
    0.5580    0.8880   -0.0200 C   0  0  0  0  0  0  0  0  0  0  0  0
  1  2  1  0
  2  3  1  0
  3  4  1  1
  3  5  1  0
  3 13  1  0
  5  6  1  0
  6  7  1  0
  7  8  1  0
  8  9  1  0
  9 10  1  6
  9 12  1  0
 10 11  1  0
 12 13  1  0
M  CHG  1   1   1
M  END
