
     RDKit          3D

 11 12  0  0  0  0  0  0  0  0999 V2000
    1.2360    2.3140    0.4210 C   0  0  0  0  0  0  0  0  0  0  0  0
    0.9660    0.8800    0.0910 C   0  0  0  0  0  0  0  0  0  0  0  0
    2.0820    0.0560   -0.0570 C   0  0  0  0  0  0  0  0  0  0  0  0
    1.9340   -1.2770   -0.3600 C   0  0  0  0  0  0  0  0  0  0  0  0
    3.0340   -2.1130   -0.5120 O   0  0  0  0  0  0  0  0  0  0  0  0
    0.6370   -1.7440   -0.5060 C   0  0  0  0  0  0  0  0  0  0  0  0
   -0.4630   -0.9460   -0.3630 C   0  0  0  0  0  0  0  0  0  0  0  0
   -0.3120    0.3890   -0.0600 C   0  0  0  0  0  0  0  0  0  0  0  0
   -1.6370    1.0430    0.0450 C   0  0  0  0  0  0  0  0  0  0  0  0
   -2.4840   -0.1660    0.4810 C   0  0  0  0  0  0  0  0  0  0  0  0
   -1.9150   -1.2010   -0.4670 C   0  0  0  0  0  0  0  0  0  0  0  0
  1  2  1  0
  2  3  2  0
  2  8  1  0
  3  4  1  0
  4  5  1  0
  4  6  2  0
  6  7  1  0
  7  8  2  0
  7 11  1  0
  8  9  1  0
  9 10  1  0
 10 11  1  0
M  END
