
     RDKit          3D

 32 32  0  0  0  0  0  0  0  0999 V2000
    0.3060   -5.2210    1.9280 C   0  0  0  0  0  0  0  0  0  0  0  0
    1.2160   -4.8750    0.7710 C   0  0  0  0  0  0  0  0  0  0  0  0
    0.7430   -3.7000    0.0650 N   0  0  0  0  0  0  0  0  0  0  0  0
    0.6040   -2.4500    0.7160 C   0  0  0  0  0  0  0  0  0  0  0  0
    0.8970   -2.3570    1.9260 O   0  0  0  0  0  0  0  0  0  0  0  0
    0.1100   -1.2270   -0.0240 C   0  0  1  0  0  0  0  0  0  0  0  0
   -1.2880   -1.5840   -0.4600 C   0  0  0  0  0  0  0  0  0  0  0  0
   -1.9790   -0.5290   -1.2150 C   0  0  0  0  0  0  0  0  0  0  0  0
   -1.3520    0.5460   -1.4310 O   0  0  0  0  0  0  0  0  0  0  0  0
   -3.3050   -0.7360   -1.6740 N   0  0  0  0  0  0  0  0  0  0  0  0
   -3.9860   -1.9780   -1.4070 C   0  0  0  0  0  0  0  0  0  0  0  0
   -3.9800    0.3020   -2.4140 C   0  0  0  0  0  0  0  0  0  0  0  0
   -4.8690    1.3720   -1.1730 P   0  0  0  0  0  0  0  0  0  0  0  0
   -3.9150    2.7540   -0.7420 O   0  0  0  0  0  0  0  0  0  0  0  0
   -4.7970    3.7420   -0.3050 C   0  0  0  0  0  0  0  0  0  0  0  0
   -4.0370    5.0030    0.0970 C   0  0  0  0  0  0  0  0  0  0  0  0
   -5.2740    0.4150    0.1910 O   0  0  0  0  0  0  0  0  0  0  0  0
   -6.5470   -0.1220    0.1420 C   0  0  0  0  0  0  0  0  0  0  0  0
   -6.7470   -0.9330    1.4110 C   0  0  0  0  0  0  0  0  0  0  0  0
    0.0890   -0.2020    0.8620 O   0  0  0  0  0  0  0  0  0  0  0  0
    1.0130    0.7860    0.7920 C   0  0  0  0  0  0  0  0  0  0  0  0
    2.3240    0.2290    0.3840 C   0  0  0  0  0  0  0  0  0  0  0  0
    3.4180    0.3630    1.0980 C   0  0  0  0  0  0  0  0  0  0  0  0
    4.7390   -0.1780    0.7230 C   0  0  0  0  0  0  0  0  0  0  0  0
    5.7370    0.9540    0.5840 C   0  0  0  0  0  0  0  0  0  0  0  0
    5.2140    1.8620   -0.4870 C   0  0  0  0  0  0  0  0  0  0  0  0
    6.0750    3.0460   -0.7510 C   0  0  0  0  0  0  0  0  0  0  0  0
    7.4440    2.5830   -1.1920 C   0  0  0  0  0  0  0  0  0  0  0  0
    8.2120    3.7270   -1.4370 O   0  0  0  0  0  0  0  0  0  0  0  0
    2.2980   -0.4750   -0.8770 N   0  0  0  0  0  0  0  0  0  0  0  0
    1.0310   -1.0490   -1.1680 C   0  0  0  0  0  0  0  0  0  0  0  0
    0.7300   -1.3740   -2.3080 O   0  0  0  0  0  0  0  0  0  0  0  0
  1  2  1  0
  2  3  1  0
  3  4  1  0
  4  5  2  0
  4  6  1  0
  6  7  1  6
  6 20  1  0
  6 31  1  0
  7  8  1  0
  8  9  2  0
  8 10  1  0
 10 11  1  0
 10 12  1  0
 12 13  1  0
 13 14  1  0
 13 17  1  0
 14 15  1  0
 15 16  1  0
 17 18  1  0
 18 19  1  0
 20 21  1  0
 21 22  1  0
 22 23  2  3
 22 30  1  0
 23 24  1  0
 24 25  1  0
 25 26  1  0
 26 27  1  0
 27 28  1  0
 28 29  1  0
 30 31  1  0
 31 32  2  0
M  END
