
     RDKit          3D

 32 34  0  0  0  0  0  0  0  0999 V2000
   -7.0920   -1.4850    0.0360 N   0  0  0  0  0  0  0  0  0  0  0  0
   -6.3880   -0.2970    0.3660 C   0  0  0  0  0  0  0  0  0  0  0  0
   -5.0840   -0.2310    0.0440 N   0  0  0  0  0  0  0  0  0  0  0  0
   -4.3340    0.8680    0.3220 C   0  0  0  0  0  0  0  0  0  0  0  0
   -4.9990    1.9110    0.9560 C   0  0  0  0  0  0  0  0  0  0  0  0
   -4.0430    2.8700    1.1170 N   0  0  0  0  0  0  0  0  0  0  0  0
   -2.8790    2.4240    0.6100 C   0  0  0  0  0  0  0  0  0  0  0  0
   -3.0450    1.1940    0.1170 N   0  0  0  0  0  0  0  0  0  0  0  0
   -2.0730    0.3460   -0.5140 C   0  0  2  0  0  0  0  0  0  0  0  0
   -1.1910   -0.2500    0.3560 O   0  0  0  0  0  0  0  0  0  0  0  0
   -0.2490   -0.8380   -0.4810 C   0  0  2  0  0  0  0  0  0  0  0  0
    1.1070   -0.9520    0.1880 C   0  0  0  0  0  0  0  0  0  0  0  0
    1.9590   -1.5590   -0.7620 O   0  0  0  0  0  0  0  0  0  0  0  0
    3.5110   -1.7510   -0.1550 P   0  0  2  0  0  0  0  0  0  0  0  0
    4.1330   -2.9400   -0.8870 O   0  0  0  0  0  0  0  0  0  0  0  0
    3.4110   -2.0570    1.4960 O   0  0  0  0  0  0  0  0  0  0  0  0
    4.4240   -0.3860   -0.5110 O   0  0  0  0  0  0  0  0  0  0  0  0
    5.1580    0.2240    0.8940 P   0  0  2  0  0  0  0  0  0  0  0  0
    5.3070   -0.8680    1.9400 O   0  0  0  0  0  0  0  0  0  0  0  0
    4.2580    1.4670    1.5640 O   0  0  0  0  0  0  0  0  0  0  0  0
    6.7240    0.7140    0.4770 O   0  0  0  0  0  0  0  0  0  0  0  0
    7.4010   -0.5080   -0.4700 P   0  0  2  0  0  0  0  0  0  0  0  0
    6.6170   -0.7080   -1.7440 O   0  0  0  0  0  0  0  0  0  0  0  0
    7.3620   -1.9610    0.4320 O   0  0  0  0  0  0  0  0  0  0  0  0
    9.0160   -0.1980   -0.8450 O   0  0  0  0  0  0  0  0  0  0  0  0
   -0.0910    0.0610   -1.6770 C   0  0  1  0  0  0  0  0  0  0  0  0
   -0.5210   -0.6150   -2.8180 O   0  0  0  0  0  0  0  0  0  0  0  0
   -1.1050    1.1510   -1.3900 C   0  0  1  0  0  0  0  0  0  0  0  0
   -1.7420    1.5630   -2.5650 O   0  0  0  0  0  0  0  0  0  0  0  0
   -6.3300    1.8350    1.2810 C   0  0  0  0  0  0  0  0  0  0  0  0
   -6.9070    2.7860    1.8510 O   0  0  0  0  0  0  0  0  0  0  0  0
   -7.0160    0.7260    0.9810 N   0  0  0  0  0  0  0  0  0  0  0  0
  1  2  1  0
  2  3  2  0
  2 32  1  0
  3  4  1  0
  4  5  2  0
  4  8  1  0
  5  6  1  0
  5 30  1  0
  6  7  2  0
  7  8  1  0
  9  8  1  1
  9 10  1  0
  9 28  1  0
 10 11  1  0
 11 12  1  1
 11 26  1  0
 12 13  1  0
 13 14  1  0
 14 15  2  0
 14 16  1  1
 14 17  1  0
 17 18  1  0
 18 19  2  0
 18 20  1  1
 18 21  1  0
 21 22  1  0
 22 23  2  0
 22 24  1  1
 22 25  1  0
 26 27  1  6
 26 28  1  0
 28 29  1  6
 30 31  2  0
 30 32  1  0
M  END
