
     RDKit          3D

 31 31  0  0  0  0  0  0  0  0999 V2000
   -6.4020   -2.8450    0.2890 C   0  0  0  0  0  0  0  0  0  0  0  0
   -6.1690   -1.4130   -0.0620 C   0  0  0  0  0  0  0  0  0  0  0  0
   -4.9820   -1.2560   -0.7730 O   0  0  0  0  0  0  0  0  0  0  0  0
   -4.6610    0.3630   -1.2030 P   0  0  0  0  0  0  0  0  0  0  0  0
   -3.3500    1.1650   -0.1940 C   0  0  0  0  0  0  0  0  0  0  0  0
   -2.2200    1.6860   -1.0180 C   0  0  0  0  0  0  0  0  0  0  0  0
   -1.4870    0.7250   -1.8590 C   0  0  0  0  0  0  0  0  0  0  0  0
   -0.8200   -0.3670   -1.2170 N   0  0  0  0  0  0  0  0  0  0  0  0
    0.1750   -0.2070   -0.2190 C   0  0  0  0  0  0  0  0  0  0  0  0
    0.4500    1.0070    0.1240 O   0  0  0  0  0  0  0  0  0  0  0  0
    0.8780   -1.2880    0.4100 C   0  0  2  0  0  0  0  0  0  0  0  0
    1.4960   -2.2570   -0.6160 C   0  0  0  0  0  0  0  0  0  0  0  0
    0.1730   -1.9930    1.4810 C   0  0  0  0  0  0  0  0  0  0  0  0
   -1.0860   -2.7100    1.2320 C   0  0  0  0  0  0  0  0  0  0  0  0
   -2.1720   -2.0320    0.7940 O   0  0  0  0  0  0  0  0  0  0  0  0
    2.1200   -0.6860    1.0590 C   0  0  0  0  0  0  0  0  0  0  0  0
    2.3750    0.5180    0.9920 O   0  0  0  0  0  0  0  0  0  0  0  0
    2.9360   -1.5760    1.7230 O   0  0  0  0  0  0  0  0  0  0  0  0
    4.1240   -1.1990    2.3810 C   0  0  0  0  0  0  0  0  0  0  0  0
    5.1260   -0.5780    1.4750 C   0  0  0  0  0  0  0  0  0  0  0  0
    6.0620   -1.2640    0.6900 C   0  0  0  0  0  0  0  0  0  0  0  0
    6.8000   -0.3720    0.0050 N   0  0  0  0  0  0  0  0  0  0  0  0
    6.4020    0.8800    0.2940 C   0  0  0  0  0  0  0  0  0  0  0  0
    6.9280    2.1340   -0.2230 C   0  0  0  0  0  0  0  0  0  0  0  0
    6.4200    3.2140    0.1690 O   0  0  0  0  0  0  0  0  0  0  0  0
    7.9870    2.2100   -1.1510 N   0  0  0  0  0  0  0  0  0  0  0  0
    8.5170    3.4530   -1.6710 C   0  0  0  0  0  0  0  0  0  0  0  0
    5.3720    0.7530    1.1980 C   0  0  0  0  0  0  0  0  0  0  0  0
   -6.0560    1.3300   -1.4150 O   0  0  0  0  0  0  0  0  0  0  0  0
   -6.3700    2.1250   -0.3410 C   0  0  0  0  0  0  0  0  0  0  0  0
   -7.6280    2.9080   -0.7070 C   0  0  0  0  0  0  0  0  0  0  0  0
  1  2  1  0
  2  3  1  0
  3  4  1  0
  4  5  1  0
  4 29  1  0
  5  6  1  0
  6  7  1  0
  7  8  1  0
  8  9  1  0
  9 10  2  0
  9 11  1  0
 11 12  1  6
 11 13  1  0
 11 16  1  0
 13 14  1  0
 14 15  1  0
 16 17  2  0
 16 18  1  0
 18 19  1  0
 19 20  1  0
 20 21  2  0
 20 28  1  0
 21 22  1  0
 22 23  1  0
 23 24  1  0
 23 28  2  0
 24 25  2  0
 24 26  1  0
 26 27  1  0
 29 30  1  0
 30 31  1  0
M  END
