
     RDKit          3D

 32 32  0  0  0  0  0  0  0  0999 V2000
    4.9670   -0.7440   -2.5890 C   0  0  0  0  0  0  0  0  0  0  0  0
    5.8960   -1.0620   -1.5100 C   0  0  0  0  0  0  0  0  0  0  0  0
    5.6840   -0.9780   -0.2450 C   0  0  0  0  0  0  0  0  0  0  0  0
    4.5190   -0.5640    0.4960 C   0  0  0  0  0  0  0  0  0  0  0  0
    4.6550   -0.6010    1.7840 O   0  0  0  0  0  0  0  0  0  0  0  0
    3.2740   -0.1320    0.0340 N   0  0  0  0  0  0  0  0  0  0  0  0
    2.1440    0.2640    0.8210 C   0  0  0  0  0  0  0  0  0  0  0  0
    2.0000   -0.0460    2.1340 C   0  0  0  0  0  0  0  0  0  0  0  0
    0.8600    0.4210    2.8250 C   0  0  0  0  0  0  0  0  0  0  0  0
   -0.0600    1.1690    2.1440 C   0  0  0  0  0  0  0  0  0  0  0  0
    0.0660    1.4950    0.8120 C   0  0  0  0  0  0  0  0  0  0  0  0
   -0.9600    2.3150    0.1500 C   0  0  0  0  0  0  0  0  0  0  0  0
   -0.8890    2.6170   -1.0610 O   0  0  0  0  0  0  0  0  0  0  0  0
   -2.0610    2.7890    0.8620 O   0  0  0  0  0  0  0  0  0  0  0  0
   -3.0530    3.5650    0.2850 C   0  0  0  0  0  0  0  0  0  0  0  0
   -3.8740    2.9320   -0.7980 C   0  0  0  0  0  0  0  0  0  0  0  0
   -4.6390    1.7860   -0.4430 N   0  0  0  0  0  0  0  0  0  0  0  0
   -3.8500    0.6420   -0.1310 C   0  0  0  0  0  0  0  0  0  0  0  0
   -4.7190   -0.5900    0.1290 C   0  0  1  0  0  0  0  0  0  0  0  0
   -5.6590   -0.3630    1.2810 C   0  0  1  0  0  0  0  0  0  0  0  0
   -6.2860   -1.6900    1.6480 C   0  0  0  0  0  0  0  0  0  0  0  0
   -4.8700    0.0600    2.3680 O   0  0  0  0  0  0  0  0  0  0  0  0
   -5.4350   -1.0250   -1.0290 N   0  0  0  0  0  0  0  0  0  0  0  0
   -6.4250   -0.1880   -1.6730 C   0  0  0  0  0  0  0  0  0  0  0  0
   -5.1990   -2.3190   -1.6050 C   0  0  0  0  0  0  0  0  0  0  0  0
   -5.8040   -2.7240   -2.6060 O   0  0  0  0  0  0  0  0  0  0  0  0
    1.1750    1.0390    0.1480 C   0  0  0  0  0  0  0  0  0  0  0  0
    6.8590   -1.3830    0.6460 C   0  0  2  0  0  0  0  0  0  0  0  0
    7.2390   -0.1510    1.4130 C   0  0  0  0  0  0  0  0  0  0  0  0
    8.2350   -2.0640   -0.3290 P   0  0  0  0  0  0  0  0  0  0  0  0
    7.8620   -3.4030   -1.3130 O   0  0  0  0  0  0  0  0  0  0  0  0
    9.0370   -0.8450   -1.2280 O   0  0  0  0  0  0  0  0  0  0  0  0
  1  2  1  0
  2  3  2  3
  3  4  1  0
  3 28  1  0
  4  5  2  0
  4  6  1  0
  6  7  1  0
  7  8  2  0
  7 27  1  0
  8  9  1  0
  9 10  2  0
 10 11  1  0
 11 12  1  0
 11 27  2  0
 12 13  2  0
 12 14  1  0
 14 15  1  0
 15 16  1  0
 16 17  1  0
 17 18  1  0
 19 18  1  6
 19 20  1  0
 19 23  1  0
 20 21  1  1
 20 22  1  0
 23 24  1  0
 23 25  1  0
 25 26  2  0
 28 29  1  6
 28 30  1  0
 30 31  1  0
 30 32  1  0
M  END
