
     RDKit          3D

 31 32  0  0  0  0  0  0  0  0999 V2000
   -2.2690    0.5160   -0.0810 C   0  0  0  0  0  0  0  0  0  0  0  0
   -2.1610   -0.9430    0.0840 C   0  0  2  0  0  0  0  0  0  0  0  0
   -3.4190   -1.6290    0.6050 C   0  0  0  0  0  0  0  0  0  0  0  0
   -3.8770   -1.1940    1.9400 C   0  0  0  0  0  0  0  0  0  0  0  0
   -4.2350    0.1880    1.9810 N   0  0  0  0  0  0  0  0  0  0  0  0
   -5.3760    0.6200    1.2280 C   0  0  0  0  0  0  0  0  0  0  0  0
   -5.7430    1.9510    1.2470 C   0  0  0  0  0  0  0  0  0  0  0  0
   -6.8380    2.3850    0.5290 C   0  0  0  0  0  0  0  0  0  0  0  0
   -7.5680    1.4780   -0.2130 C   0  0  0  0  0  0  0  0  0  0  0  0
   -7.1890    0.1460   -0.2220 C   0  0  0  0  0  0  0  0  0  0  0  0
   -6.1140   -0.2130    0.4980 N   0  0  0  0  0  0  0  0  0  0  0  0
   -8.0830   -0.5340   -1.0340 O   0  0  0  0  0  0  0  0  0  0  0  0
   -9.2110    0.3150   -1.2060 C   0  0  2  0  0  0  0  0  0  0  0  0
   -9.6960    0.1030   -2.6250 C   0  0  0  0  0  0  0  0  0  0  0  0
   -8.6910    1.6270   -1.0140 O   0  0  0  0  0  0  0  0  0  0  0  0
   -1.0050   -1.4410    0.8710 C   0  0  0  0  0  0  0  0  0  0  0  0
    0.2380   -1.1410    0.4010 O   0  0  0  0  0  0  0  0  0  0  0  0
    0.9520   -0.0070    0.3170 C   0  0  0  0  0  0  0  0  0  0  0  0
    0.5320    1.0700    0.7250 O   0  0  0  0  0  0  0  0  0  0  0  0
    2.3440   -0.1400   -0.3280 C   0  0  1  0  0  0  0  0  0  0  0  0
    2.0860   -0.5860   -1.7450 C   0  0  0  0  0  0  0  0  0  0  0  0
    3.0170    1.1980   -0.2430 C   0  0  0  0  0  0  0  0  0  0  0  0
    2.9920   -1.2370    0.4460 C   0  0  0  0  0  0  0  0  0  0  0  0
    4.2850   -1.6530    0.0870 N   0  0  0  0  0  0  0  0  0  0  0  0
    5.3320   -0.7360    0.3340 C   0  0  0  0  0  0  0  0  0  0  0  0
    6.6830   -1.4070    0.0530 C   0  0  0  0  0  0  0  0  0  0  0  0
    7.7840   -0.4440    0.3570 C   0  0  0  0  0  0  0  0  0  0  0  0
    7.6940    0.7940   -0.4900 C   0  0  0  0  0  0  0  0  0  0  0  0
    9.1610    1.8780   -0.0250 P   0  0  0  0  0  0  0  0  0  0  0  0
   10.5750    0.8400   -0.0080 O   0  0  0  0  0  0  0  0  0  0  0  0
    9.3240    3.1360   -1.1930 O   0  0  0  0  0  0  0  0  0  0  0  0
  2  1  1  1
  2  3  1  0
  2 16  1  0
  3  4  1  0
  4  5  1  0
  5  6  1  0
  6  7  2  0
  6 11  1  0
  7  8  1  0
  8  9  2  0
  9 10  1  0
  9 15  1  0
 10 11  2  0
 10 12  1  0
 12 13  1  0
 13 14  1  6
 13 15  1  0
 16 17  1  0
 17 18  1  0
 18 19  2  0
 18 20  1  0
 20 21  1  6
 20 22  1  0
 20 23  1  0
 23 24  1  0
 24 25  1  0
 25 26  1  0
 26 27  1  0
 27 28  1  0
 28 29  1  0
 29 30  1  0
 29 31  1  0
M  END
