
     RDKit          3D

 32 33  0  0  0  0  0  0  0  0999 V2000
   -0.2480   -3.5600    2.1730 C   0  0  0  0  0  0  0  0  0  0  0  0
   -0.5500   -2.2790    1.4420 C   0  0  1  0  0  0  0  0  0  0  0  0
   -1.0850   -1.2970    2.2280 O   0  0  0  0  0  0  0  0  0  0  0  0
   -2.2920   -0.7850    1.8080 C   0  0  0  0  0  0  0  0  0  0  0  0
   -2.2640   -0.1350    0.4450 C   0  0  2  0  0  0  0  0  0  0  0  0
   -1.3330    0.9860    0.4430 N   0  0  0  0  0  0  0  0  0  0  0  0
   -1.4950    2.0870    1.3080 C   0  0  0  0  0  0  0  0  0  0  0  0
   -0.6200    3.1770    1.3310 C   0  0  0  0  0  0  0  0  0  0  0  0
   -1.0920    4.0420    2.2880 C   0  0  0  0  0  0  0  0  0  0  0  0
   -2.2170    3.4530    2.8000 C   0  0  0  0  0  0  0  0  0  0  0  0
   -2.4230    2.3140    2.2060 O   0  0  0  0  0  0  0  0  0  0  0  0
   -3.6220    0.3850    0.1580 C   0  0  0  0  0  0  0  0  0  0  0  0
   -3.8280    1.6560    0.1190 O   0  0  0  0  0  0  0  0  0  0  0  0
   -4.7700   -0.4060   -0.0940 N   0  0  0  0  0  0  0  0  0  0  0  0
   -4.6320   -1.8500   -0.1270 C   0  0  0  0  0  0  0  0  0  0  0  0
   -6.0740    0.2110   -0.3160 C   0  0  0  0  0  0  0  0  0  0  0  0
   -6.3720    0.5740   -2.0970 P   0  0  0  0  0  0  0  0  0  0  0  0
   -5.2200   -0.1720   -3.1430 O   0  0  0  0  0  0  0  0  0  0  0  0
   -7.9590    0.1130   -2.6190 O   0  0  0  0  0  0  0  0  0  0  0  0
    0.7390   -1.7970    0.8900 C   0  0  0  0  0  0  0  0  0  0  0  0
    1.0020   -2.0030   -0.4430 C   0  0  0  0  0  0  0  0  0  0  0  0
    2.1620   -1.6060   -1.0570 C   0  0  0  0  0  0  0  0  0  0  0  0
    3.1410   -0.9560   -0.3120 C   0  0  0  0  0  0  0  0  0  0  0  0
    4.3950   -0.5230   -0.9710 C   0  0  0  0  0  0  0  0  0  0  0  0
    4.3500   -0.4850   -2.2230 O   0  0  0  0  0  0  0  0  0  0  0  0
    5.5380   -0.1840   -0.2420 N   0  0  0  0  0  0  0  0  0  0  0  0
    6.7560    0.2600   -0.8280 C   0  0  0  0  0  0  0  0  0  0  0  0
    6.8050    1.5620   -1.5000 C   0  0  0  0  0  0  0  0  0  0  0  0
    5.9240    1.8790   -2.6360 C   0  0  0  0  0  0  0  0  0  0  0  0
    6.2400    3.1920   -3.1180 O   0  0  0  0  0  0  0  0  0  0  0  0
    2.8830   -0.7470    1.0210 C   0  0  0  0  0  0  0  0  0  0  0  0
    1.7020   -1.1550    1.6320 C   0  0  0  0  0  0  0  0  0  0  0  0
  2  1  1  1
  2  3  1  0
  2 20  1  0
  3  4  1  0
  5  4  1  1
  5  6  1  0
  5 12  1  0
  6  7  1  0
  7  8  2  0
  7 11  1  0
  8  9  1  0
  9 10  2  0
 10 11  1  0
 12 13  2  0
 12 14  1  0
 14 15  1  0
 14 16  1  0
 16 17  1  0
 17 18  1  0
 17 19  1  0
 20 21  2  0
 20 32  1  0
 21 22  1  0
 22 23  2  0
 23 24  1  0
 23 31  1  0
 24 25  2  0
 24 26  1  0
 26 27  1  0
 27 28  1  0
 28 29  1  0
 29 30  1  0
 31 32  2  0
M  END
