
     RDKit          3D

 32 33  0  0  0  0  0  0  0  0999 V2000
    7.4420   -2.6340   -0.9860 C   0  0  0  0  0  0  0  0  0  0  0  0
    6.3010   -1.7700   -1.5670 C   0  0  0  0  0  0  0  0  0  0  0  0
    6.8180   -0.5060   -1.7290 O   0  0  0  0  0  0  0  0  0  0  0  0
    6.0170    0.7690   -0.9880 P   0  0  0  0  0  0  0  0  0  0  0  0
    4.3370    0.7930   -0.4920 C   0  0  0  0  0  0  0  0  0  0  0  0
    3.3880   -0.0530   -0.1670 N   0  0  0  0  0  0  0  0  0  0  0  0
    3.7630   -0.9130    1.1640 C   0  0  0  0  0  0  0  0  0  0  0  0
    2.2390   -0.7470   -0.6150 C   0  0  0  0  0  0  0  0  0  0  0  0
    2.0350   -1.2980   -1.6750 O   0  0  0  0  0  0  0  0  0  0  0  0
    1.2060   -0.6600    0.5040 C   0  0  0  0  0  0  0  0  0  0  0  0
   -0.1020   -0.8000    0.4990 O   0  0  0  0  0  0  0  0  0  0  0  0
   -1.0630   -0.3090   -0.3430 C   0  0  0  0  0  0  0  0  0  0  0  0
   -0.8570    0.2180   -1.5830 C   0  0  0  0  0  0  0  0  0  0  0  0
   -1.9070    0.7140   -2.3880 C   0  0  0  0  0  0  0  0  0  0  0  0
   -3.1770    0.6930   -1.9500 C   0  0  0  0  0  0  0  0  0  0  0  0
   -3.3890    0.1980   -0.6970 C   0  0  0  0  0  0  0  0  0  0  0  0
   -2.3690   -0.2910    0.0680 C   0  0  0  0  0  0  0  0  0  0  0  0
   -4.7240    0.4830   -0.0320 C   0  0  1  0  0  0  0  0  0  0  0  0
   -4.6230    1.7100    0.7500 N   0  0  0  0  0  0  0  0  0  0  0  0
   -5.5170    1.7970    1.8400 C   0  0  0  0  0  0  0  0  0  0  0  0
   -4.9460    0.9650    2.9880 C   0  0  0  0  0  0  0  0  0  0  0  0
   -5.7910    0.9960    4.0770 O   0  0  0  0  0  0  0  0  0  0  0  0
   -5.8580    0.7150   -0.9730 C   0  0  0  0  0  0  0  0  0  0  0  0
   -5.5140    0.0200   -2.3380 C   0  0  2  0  0  0  0  0  0  0  0  0
   -4.9900   -1.2850   -1.9340 N   0  0  0  0  0  0  0  0  0  0  0  0
   -5.7340   -2.1390   -1.0800 C   0  0  0  0  0  0  0  0  0  0  0  0
   -6.8900   -1.6680   -0.7150 O   0  0  0  0  0  0  0  0  0  0  0  0
   -5.4250   -3.3370   -0.5500 O   0  0  0  0  0  0  0  0  0  0  0  0
   -4.3890    0.8610   -2.8860 C   0  0  0  0  0  0  0  0  0  0  0  0
    7.0510    1.0630    0.5190 O   0  0  0  0  0  0  0  0  0  0  0  0
    6.2710    1.6660    1.4460 C   0  0  0  0  0  0  0  0  0  0  0  0
    7.0630    1.8020    2.7510 C   0  0  0  0  0  0  0  0  0  0  0  0
  1  2  1  0
  2  3  1  0
  3  4  1  0
  4  5  1  0
  4 30  1  0
  5  6  1  0
  6  7  1  0
  6  8  1  0
  8  9  2  0
  8 10  1  0
 10 11  1  0
 11 12  1  0
 12 13  2  0
 12 17  1  0
 13 14  1  0
 14 15  2  0
 15 16  1  0
 15 29  1  0
 16 17  2  0
 16 18  1  0
 18 19  1  6
 18 23  1  0
 19 20  1  0
 20 21  1  0
 21 22  1  0
 23 24  1  0
 24 25  1  1
 24 29  1  0
 25 26  1  0
 26 27  2  0
 26 28  1  0
 30 31  1  0
 31 32  1  0
M  END
