
     RDKit          3D

 32 32  0  0  0  0  0  0  0  0999 V2000
   -7.3060    3.2380    1.3890 C   0  0  0  0  0  0  0  0  0  0  0  0
   -7.2840    1.8010    0.9060 C   0  0  0  0  0  0  0  0  0  0  0  0
   -6.1160    1.5380    0.1940 O   0  0  0  0  0  0  0  0  0  0  0  0
   -6.1100   -0.1080   -0.3460 P   0  0  0  0  0  0  0  0  0  0  0  0
   -5.0700   -1.1260    0.7580 C   0  0  0  0  0  0  0  0  0  0  0  0
   -3.5630   -1.0160    0.4360 C   0  0  0  0  0  0  0  0  0  0  0  0
   -3.2650   -1.4350   -0.8640 N   0  0  0  0  0  0  0  0  0  0  0  0
   -3.7370   -0.6170   -1.9470 C   0  0  0  0  0  0  0  0  0  0  0  0
   -2.0130   -2.0080   -1.1820 C   0  0  0  0  0  0  0  0  0  0  0  0
   -0.8670   -1.0470   -1.1450 C   0  0  0  0  0  0  0  0  0  0  0  0
   -0.5740   -0.4410    0.1010 N   0  0  0  0  0  0  0  0  0  0  0  0
    0.5100    0.5020    0.2100 C   0  0  0  0  0  0  0  0  0  0  0  0
    1.1630    0.7490   -0.8330 O   0  0  0  0  0  0  0  0  0  0  0  0
    0.7920    1.1230    1.5300 C   0  0  0  0  0  0  0  0  0  0  0  0
    1.9260    2.0120    1.3750 N   0  0  0  0  0  0  0  0  0  0  0  0
    3.1940    1.5320    0.9480 C   0  0  0  0  0  0  0  0  0  0  0  0
    3.3140    0.3240    0.7050 O   0  0  0  0  0  0  0  0  0  0  0  0
    4.3180    2.3510    0.7870 O   0  0  0  0  0  0  0  0  0  0  0  0
    5.5050    1.7510    0.3630 C   0  0  0  0  0  0  0  0  0  0  0  0
    6.4360    1.2730    1.2740 C   0  0  0  0  0  0  0  0  0  0  0  0
    7.6070    0.6810    0.8480 C   0  0  0  0  0  0  0  0  0  0  0  0
    7.9100    0.5350   -0.4890 C   0  0  0  0  0  0  0  0  0  0  0  0
    9.1840   -0.1090   -0.9050 C   0  0  1  0  0  0  0  0  0  0  0  0
   10.3960    0.7390   -0.5030 C   0  0  0  0  0  0  0  0  0  0  0  0
    9.3270   -1.4890   -0.3980 C   0  0  0  0  0  0  0  0  0  0  0  0
    9.4550   -2.4900   -1.1440 O   0  0  0  0  0  0  0  0  0  0  0  0
    9.3210   -1.6970    0.9700 O   0  0  0  0  0  0  0  0  0  0  0  0
    6.9800    1.0130   -1.3970 C   0  0  0  0  0  0  0  0  0  0  0  0
    5.8050    1.6070   -0.9730 C   0  0  0  0  0  0  0  0  0  0  0  0
   -7.7090   -0.7480   -0.5340 O   0  0  0  0  0  0  0  0  0  0  0  0
   -7.5790   -2.0830   -0.9090 C   0  0  0  0  0  0  0  0  0  0  0  0
   -8.9360   -2.7320   -1.1050 C   0  0  0  0  0  0  0  0  0  0  0  0
  1  2  1  0
  2  3  1  0
  3  4  1  0
  4  5  1  0
  4 30  1  0
  5  6  1  0
  6  7  1  0
  7  8  1  0
  7  9  1  0
  9 10  1  0
 10 11  1  0
 11 12  1  0
 12 13  2  0
 12 14  1  0
 14 15  1  0
 15 16  1  0
 16 17  2  0
 16 18  1  0
 18 19  1  0
 19 20  2  0
 19 29  1  0
 20 21  1  0
 21 22  2  0
 22 23  1  0
 22 28  1  0
 23 24  1  1
 23 25  1  0
 25 26  2  0
 25 27  1  0
 28 29  2  0
 30 31  1  0
 31 32  1  0
M  END
