
     RDKit          3D

 29 29  0  0  0  0  0  0  0  0999 V2000
    0.2740   -2.1730    0.7610 N   0  0  0  0  0  0  0  0  0  0  0  0
   -1.0740   -1.8360    0.4240 C   0  0  2  0  0  0  0  0  0  0  0  0
   -1.2010   -0.5800   -0.3810 C   0  0  0  0  0  0  0  0  0  0  0  0
   -0.6910    0.6120    0.2190 N   0  0  0  0  0  0  0  0  0  0  0  0
   -1.6930    1.3850    1.0170 C   0  0  0  0  0  0  0  0  0  0  0  0
   -2.3940    2.3670    0.0950 C   0  0  0  0  0  0  0  0  0  0  0  0
   -3.3380    3.0930    0.8590 O   0  0  0  0  0  0  0  0  0  0  0  0
   -4.1380    4.0720    0.2840 C   0  0  0  0  0  0  0  0  0  0  0  0
   -4.0080    4.3040   -0.9310 O   0  0  0  0  0  0  0  0  0  0  0  0
   -5.0660    4.7840    1.0350 O   0  0  0  0  0  0  0  0  0  0  0  0
    0.6070    1.1450    0.1230 C   0  0  0  0  0  0  0  0  0  0  0  0
    0.8360    2.2140    0.8100 O   0  0  0  0  0  0  0  0  0  0  0  0
    1.6990    0.6360   -0.6500 C   0  0  2  0  0  0  0  0  0  0  0  0
    2.4400    1.7200   -1.4330 C   0  0  0  0  0  0  0  0  0  0  0  0
    3.4270    1.1730   -2.2340 O   0  0  0  0  0  0  0  0  0  0  0  0
    1.3300   -0.4260   -1.4850 O   0  0  0  0  0  0  0  0  0  0  0  0
    2.4620   -1.1820   -1.7000 N   0  0  0  0  0  0  0  0  0  0  0  0
    3.2980   -0.9750   -0.7120 C   0  0  0  0  0  0  0  0  0  0  0  0
    4.5940   -1.5760   -0.5640 N   0  0  0  0  0  0  0  0  0  0  0  0
    5.0460   -2.9210   -1.6550 P   0  0  0  0  0  0  0  0  0  0  0  0
    5.4490   -4.2790   -0.9750 O   0  0  0  0  0  0  0  0  0  0  0  0
    2.7020   -0.0530    0.1880 N   0  0  0  0  0  0  0  0  0  0  0  0
    3.0310    0.1180    1.5450 C   0  0  0  0  0  0  0  0  0  0  0  0
    2.5040    0.9330    2.3390 O   0  0  0  0  0  0  0  0  0  0  0  0
   -2.0580   -1.8090    1.9960 P   0  0  0  0  0  0  0  0  0  0  0  0
   -3.5720   -2.1910    2.0140 O   0  0  0  0  0  0  0  0  0  0  0  0
   -1.8430   -3.2090   -0.6240 P   0  0  0  0  0  0  0  0  0  0  0  0
   -3.4550   -3.5230   -0.1220 O   0  0  0  0  0  0  0  0  0  0  0  0
   -0.8370   -4.6170   -0.5130 O   0  0  0  0  0  0  0  0  0  0  0  0
  2  1  1  1
  2  3  1  0
  2 25  1  0
  2 27  1  0
  3  4  1  0
  4  5  1  0
  4 11  1  0
  5  6  1  0
  6  7  1  0
  7  8  1  0
  8  9  2  0
  8 10  1  0
 11 12  2  0
 11 13  1  0
 13 14  1  6
 13 16  1  0
 13 22  1  0
 14 15  1  0
 16 17  1  0
 17 18  2  0
 18 19  1  0
 18 22  1  0
 19 20  1  0
 20 21  2  0
 22 23  1  0
 23 24  2  0
 25 26  2  0
 27 28  1  0
 27 29  1  0
M  END
