
     RDKit          3D

 29 30  0  0  0  0  0  0  0  0999 V2000
   -2.9460   -4.4320    2.0590 O   0  0  0  0  0  0  0  0  0  0  0  0
   -2.4000   -3.0810    2.5760 P   0  0  0  0  0  0  0  0  0  0  0  0
   -3.2910   -1.4820    2.4350 C   0  0  0  0  0  0  0  0  0  0  0  0
   -3.2600   -0.9100    1.0320 C   0  0  0  0  0  0  0  0  0  0  0  0
   -2.0180   -0.6720    0.5880 O   0  0  0  0  0  0  0  0  0  0  0  0
   -1.8050   -0.1570   -0.6520 C   0  0  1  0  0  0  0  0  0  0  0  0
   -0.3750   -0.0720   -0.7020 O   0  0  0  0  0  0  0  0  0  0  0  0
    0.2680   -1.2500   -0.5480 C   0  0  0  0  0  0  0  0  0  0  0  0
    1.7470   -0.9450   -0.5870 C   0  0  0  0  0  0  0  0  0  0  0  0
    2.3310    0.2540   -0.7410 N   0  0  0  0  0  0  0  0  0  0  0  0
    3.6200    0.1160   -0.7220 O   0  0  0  0  0  0  0  0  0  0  0  0
    3.9050   -1.1580   -0.5570 C   0  0  0  0  0  0  0  0  0  0  0  0
    5.2870   -1.7280   -0.4830 C   0  0  0  0  0  0  0  0  0  0  0  0
    6.2290   -0.7350   -0.6100 O   0  0  0  0  0  0  0  0  0  0  0  0
    6.0200    0.4080    0.6680 P   0  0  0  0  0  0  0  0  0  0  0  0
    7.5870    0.8900    1.2490 O   0  0  0  0  0  0  0  0  0  0  0  0
    5.1510   -0.3500    1.9500 O   0  0  0  0  0  0  0  0  0  0  0  0
    2.7550   -1.8270   -0.4720 N   0  0  0  0  0  0  0  0  0  0  0  0
   -2.2260   -0.8850   -1.7960 C   0  0  0  0  0  0  0  0  0  0  0  0
   -2.0630   -2.1560   -1.9720 O   0  0  0  0  0  0  0  0  0  0  0  0
   -2.8840   -0.2720   -2.8750 N   0  0  0  0  0  0  0  0  0  0  0  0
   -3.1900    1.1260   -2.8680 C   0  0  0  0  0  0  0  0  0  0  0  0
   -3.7830    1.6750   -3.8360 O   0  0  0  0  0  0  0  0  0  0  0  0
   -2.7760    1.8070   -1.7100 N   0  0  0  0  0  0  0  0  0  0  0  0
   -2.1740    1.2760   -0.7310 C   0  0  0  0  0  0  0  0  0  0  0  0
   -1.8300    2.1480    0.3820 N   0  0  0  0  0  0  0  0  0  0  0  0
   -2.7810    3.6380    0.6100 P   0  0  0  0  0  0  0  0  0  0  0  0
   -1.8010    4.9090    1.3160 O   0  0  0  0  0  0  0  0  0  0  0  0
   -3.3010    4.2420   -0.9460 O   0  0  0  0  0  0  0  0  0  0  0  0
  1  2  2  0
  2  3  1  0
  3  4  1  0
  4  5  1  0
  6  5  1  1
  6  7  1  0
  6 19  1  0
  6 25  1  0
  7  8  1  0
  8  9  1  0
  9 10  2  0
  9 18  1  0
 10 11  1  0
 11 12  1  0
 12 13  1  0
 12 18  2  0
 13 14  1  0
 14 15  1  0
 15 16  1  0
 15 17  1  0
 19 20  2  0
 19 21  1  0
 21 22  1  0
 22 23  2  0
 22 24  1  0
 24 25  2  0
 25 26  1  0
 26 27  1  0
 27 28  1  0
 27 29  1  0
M  END
