
     RDKit          3D

 29 30  0  0  0  0  0  0  0  0999 V2000
   -7.5720    1.6280   -1.5510 N   0  0  0  0  0  0  0  0  0  0  0  0
   -7.6270    0.7620   -0.3920 C   0  0  0  0  0  0  0  0  0  0  0  0
   -8.6620    0.5980    0.2670 O   0  0  0  0  0  0  0  0  0  0  0  0
   -6.4250    0.0760   -0.0080 N   0  0  0  0  0  0  0  0  0  0  0  0
   -6.2530   -0.7120    1.1470 C   0  0  0  0  0  0  0  0  0  0  0  0
   -7.1140   -1.0050    2.0340 O   0  0  0  0  0  0  0  0  0  0  0  0
   -4.9240   -1.1750    1.2140 O   0  0  0  0  0  0  0  0  0  0  0  0
   -4.2140   -0.7130    0.1270 C   0  0  0  0  0  0  0  0  0  0  0  0
   -2.6630   -0.9040   -0.3130 P   0  0  0  0  0  0  0  0  0  0  0  0
   -1.1550   -2.0620    0.8960 P   0  0  0  0  0  0  0  0  0  0  0  0
   -2.0040   -3.2180    1.8280 O   0  0  0  0  0  0  0  0  0  0  0  0
   -0.5010   -0.7760    1.9720 O   0  0  0  0  0  0  0  0  0  0  0  0
    0.6230   -0.2590    1.3090 C   0  0  0  0  0  0  0  0  0  0  0  0
    0.0870    0.5940    0.2090 C   0  0  0  0  0  0  0  0  0  0  0  0
    1.1180    1.2960   -0.5100 N   0  0  0  0  0  0  0  0  0  0  0  0
    2.2650    0.5950   -0.8980 C   0  0  0  0  0  0  0  0  0  0  0  0
    2.6110   -0.5750   -0.6190 O   0  0  0  0  0  0  0  0  0  0  0  0
    3.2170    1.2150   -1.7100 N   0  0  0  0  0  0  0  0  0  0  0  0
    4.5120    0.7370   -1.9250 C   0  0  0  0  0  0  0  0  0  0  0  0
    5.0250    1.0810   -3.0340 N   0  0  0  0  0  0  0  0  0  0  0  0
    6.2710    0.5500   -3.1660 O   0  0  0  0  0  0  0  0  0  0  0  0
    6.4650   -0.3690   -2.1500 O   0  0  0  0  0  0  0  0  0  0  0  0
    5.7050    0.2890   -1.1860 C   0  0  2  0  0  0  0  0  0  0  0  0
    5.6240   -0.3850    0.0740 C   0  0  0  0  0  0  0  0  0  0  0  0
    6.8610   -0.4720    0.7570 O   0  0  0  0  0  0  0  0  0  0  0  0
    6.6720   -1.2770    2.2920 P   0  0  0  0  0  0  0  0  0  0  0  0
    7.1650   -0.5110    3.5720 O   0  0  0  0  0  0  0  0  0  0  0  0
   -5.1800    0.0960   -0.6660 C   0  0  0  0  0  0  0  0  0  0  0  0
   -4.9520    0.7120   -1.7530 O   0  0  0  0  0  0  0  0  0  0  0  0
  1  2  1  0
  2  3  2  0
  2  4  1  0
  4  5  1  0
  4 28  1  0
  5  6  2  0
  5  7  1  0
  7  8  1  0
  8  9  2  3
  8 28  1  0
  9 10  1  0
 10 11  1  0
 10 12  1  0
 12 13  1  0
 13 14  1  0
 14 15  1  0
 15 16  1  0
 16 17  2  0
 16 18  1  0
 18 19  1  0
 19 20  2  0
 19 23  1  0
 20 21  1  0
 21 22  1  0
 22 23  1  0
 23 24  1  1
 24 25  1  0
 25 26  1  0
 26 27  2  0
 28 29  2  0
M  END
