
     RDKit          3D

 29 30  0  0  0  0  0  0  0  0999 V2000
    5.6430    1.9810    1.1440 O   0  0  0  0  0  0  0  0  0  0  0  0
    5.1250    0.5640    1.5240 P   0  0  0  0  0  0  0  0  0  0  0  0
    3.3610    0.3690    1.8360 N   0  0  0  0  0  0  0  0  0  0  0  0
    2.5460   -0.0090    0.7570 C   0  0  0  0  0  0  0  0  0  0  0  0
    2.9550   -0.6520   -0.2550 N   0  0  0  0  0  0  0  0  0  0  0  0
    4.2610   -1.1100   -0.5100 C   0  0  0  0  0  0  0  0  0  0  0  0
    5.0080   -0.4780   -1.3860 C   0  0  0  0  0  0  0  0  0  0  0  0
    4.5400    0.6450   -2.0780 O   0  0  0  0  0  0  0  0  0  0  0  0
    1.1330    0.3250    0.7480 N   0  0  0  0  0  0  0  0  0  0  0  0
    0.6920    1.4300    1.3640 C   0  0  0  0  0  0  0  0  0  0  0  0
    1.4900    2.1740    1.9440 O   0  0  0  0  0  0  0  0  0  0  0  0
   -0.6460    1.7310    1.3500 C   0  0  0  0  0  0  0  0  0  0  0  0
   -1.5420    0.8800    0.6900 C   0  0  0  0  0  0  0  0  0  0  0  0
   -1.0570   -0.2050    0.0900 N   0  0  0  0  0  0  0  0  0  0  0  0
    0.2820   -0.4880    0.1160 C   0  0  0  0  0  0  0  0  0  0  0  0
    0.7600   -1.5070   -0.4410 O   0  0  0  0  0  0  0  0  0  0  0  0
   -1.9270   -1.0860   -0.6340 C   0  0  1  0  0  0  0  0  0  0  0  0
   -1.6230   -0.8930   -2.1480 C   0  0  0  0  0  0  0  0  0  0  0  0
   -2.3940   -1.7640   -2.9120 O   0  0  0  0  0  0  0  0  0  0  0  0
   -1.5760   -2.8760   -0.2410 P   0  0  0  0  0  0  0  0  0  0  0  0
   -3.1030   -3.7130   -0.2970 O   0  0  0  0  0  0  0  0  0  0  0  0
   -0.5390   -3.5510   -1.4260 O   0  0  0  0  0  0  0  0  0  0  0  0
   -3.2670   -0.8150   -0.4980 O   0  0  0  0  0  0  0  0  0  0  0  0
   -3.8030    0.2820    0.0940 C   0  0  0  0  0  0  0  0  0  0  0  0
   -5.0650    0.4340    0.0480 O   0  0  0  0  0  0  0  0  0  0  0  0
   -2.9460    1.2030    0.7330 N   0  0  0  0  0  0  0  0  0  0  0  0
   -3.5680    2.6430    1.5180 P   0  0  0  0  0  0  0  0  0  0  0  0
   -3.4230    2.6400    3.2260 O   0  0  0  0  0  0  0  0  0  0  0  0
   -3.0950    4.1200    0.7770 O   0  0  0  0  0  0  0  0  0  0  0  0
  1  2  2  0
  2  3  1  0
  3  4  1  0
  4  5  2  3
  4  9  1  0
  5  6  1  0
  6  7  2  3
  7  8  1  0
  9 10  1  0
  9 15  1  0
 10 11  2  0
 10 12  1  0
 12 13  2  0
 13 14  1  0
 13 26  1  0
 14 15  1  0
 14 17  1  0
 15 16  2  0
 17 18  1  6
 17 20  1  0
 17 23  1  0
 18 19  1  0
 20 21  1  0
 20 22  1  0
 23 24  1  0
 24 25  2  0
 24 26  1  0
 26 27  1  0
 27 28  1  0
 27 29  1  0
M  END
