
     RDKit          3D

 30 30  0  0  0  0  0  0  0  0999 V2000
   -8.0100    1.7580    0.1750 O   0  0  0  0  0  0  0  0  0  0  0  0
   -8.3410    0.7070    0.4840 C   0  0  0  0  0  0  0  0  0  0  0  0
   -6.9790   -0.3930    0.7510 N   0  0  0  0  0  0  0  0  0  0  0  0
   -6.0090    0.4940    0.4930 C   0  0  0  0  0  0  0  0  0  0  0  0
   -6.0370    1.7830    0.3780 O   0  0  0  0  0  0  0  0  0  0  0  0
   -4.6940    0.0830    0.2810 N   0  0  0  0  0  0  0  0  0  0  0  0
   -3.4640   -0.2840    0.0820 C   0  0  0  0  0  0  0  0  0  0  0  0
   -2.8000    0.8510   -0.3050 O   0  0  0  0  0  0  0  0  0  0  0  0
   -2.6430   -1.4530    0.1340 C   0  0  0  0  0  0  0  0  0  0  0  0
   -1.3220   -1.0680   -0.3010 N   0  0  0  0  0  0  0  0  0  0  0  0
   -0.9860   -1.1270   -1.6770 C   0  0  0  0  0  0  0  0  0  0  0  0
   -1.8350   -1.5630   -2.4970 O   0  0  0  0  0  0  0  0  0  0  0  0
    0.2590   -0.7230   -2.1360 O   0  0  0  0  0  0  0  0  0  0  0  0
    1.0320    0.1750   -1.3720 C   0  0  1  0  0  0  0  0  0  0  0  0
    0.5270    1.5490   -1.5500 C   0  0  0  0  0  0  0  0  0  0  0  0
   -0.4350    1.7390   -2.3570 O   0  0  0  0  0  0  0  0  0  0  0  0
    1.0380    2.6820   -0.8890 O   0  0  0  0  0  0  0  0  0  0  0  0
    0.9950   -0.1400    0.1300 C   0  0  2  0  0  0  0  0  0  0  0  0
    2.0420   -1.1040    0.3600 N   0  0  0  0  0  0  0  0  0  0  0  0
    3.4180   -0.6340    0.3660 C   0  0  0  0  0  0  0  0  0  0  0  0
    3.6300    0.6060    0.1370 O   0  0  0  0  0  0  0  0  0  0  0  0
    4.5080   -1.4860    0.6030 N   0  0  0  0  0  0  0  0  0  0  0  0
    6.1940   -1.0050    0.5780 P   0  0  0  0  0  0  0  0  0  0  0  0
    7.3720   -1.9140   -1.0400 P   0  0  0  0  0  0  0  0  0  0  0  0
    8.2360   -3.1840   -0.8200 O   0  0  0  0  0  0  0  0  0  0  0  0
    6.7230    1.0060    1.0370 P   0  0  0  0  0  0  0  0  0  0  0  0
    5.3330    2.0030    1.3110 O   0  0  0  0  0  0  0  0  0  0  0  0
    7.6500    1.7130   -0.2640 O   0  0  0  0  0  0  0  0  0  0  0  0
   -0.3230   -0.5720    0.5690 C   0  0  0  0  0  0  0  0  0  0  0  0
   -0.6200   -0.5100    1.8120 O   0  0  0  0  0  0  0  0  0  0  0  0
  1  2  2  0
  2  3  1  0
  3  4  1  0
  4  5  2  0
  4  6  1  0
  6  7  1  0
  7  8  2  0
  7  9  1  0
  9 10  1  0
 10 11  1  0
 10 29  1  0
 11 12  2  0
 11 13  1  0
 13 14  1  0
 14 15  1  1
 14 18  1  0
 15 16  2  0
 15 17  1  0
 18 19  1  6
 18 29  1  0
 19 20  1  0
 20 21  2  0
 20 22  1  0
 22 23  1  0
 23 24  1  0
 23 26  1  0
 24 25  2  0
 26 27  1  0
 26 28  1  0
 29 30  2  0
M  END
