
     RDKit          3D

 29 30  0  0  0  0  0  0  0  0999 V2000
   -5.9300   -5.8040    0.8930 O   0  0  0  0  0  0  0  0  0  0  0  0
   -4.8140   -4.8040    1.3440 P   0  0  0  0  0  0  0  0  0  0  0  0
   -5.2320   -3.6180    2.5120 O   0  0  0  0  0  0  0  0  0  0  0  0
   -5.0360   -2.3230    2.1280 C   0  0  0  0  0  0  0  0  0  0  0  0
   -3.6360   -1.9640    1.8310 C   0  0  0  0  0  0  0  0  0  0  0  0
   -2.5480   -2.7830    1.9450 C   0  0  0  0  0  0  0  0  0  0  0  0
   -1.3040   -2.3330    1.6560 N   0  0  0  0  0  0  0  0  0  0  0  0
   -1.0870   -1.0740    1.2490 C   0  0  0  0  0  0  0  0  0  0  0  0
    0.2060   -0.6890    0.9730 O   0  0  0  0  0  0  0  0  0  0  0  0
    0.7910   -0.8130   -0.2920 C   0  0  0  0  0  0  0  0  0  0  0  0
    0.0640   -1.3040   -1.1840 O   0  0  0  0  0  0  0  0  0  0  0  0
    2.1580   -0.3970   -0.5530 C   0  0  0  0  0  0  0  0  0  0  0  0
    2.7360   -0.4910   -1.6910 N   0  0  0  0  0  0  0  0  0  0  0  0
    4.0070   -0.0300   -1.6520 O   0  0  0  0  0  0  0  0  0  0  0  0
    4.2930    0.3620   -0.3600 C   0  0  1  0  0  0  0  0  0  0  0  0
    4.6550    1.8020   -0.1480 C   0  0  0  0  0  0  0  0  0  0  0  0
    5.8190    2.1660   -0.8670 N   0  0  0  0  0  0  0  0  0  0  0  0
    5.8980    2.1450   -2.2670 C   0  0  0  0  0  0  0  0  0  0  0  0
    4.9600    1.8190   -3.0070 O   0  0  0  0  0  0  0  0  0  0  0  0
    7.1150    2.5190   -2.8490 O   0  0  0  0  0  0  0  0  0  0  0  0
    7.2920    2.5190   -4.6010 P   0  0  0  0  0  0  0  0  0  0  0  0
    7.9710    3.7090   -5.3260 O   0  0  0  0  0  0  0  0  0  0  0  0
    3.0630    0.1530    0.3230 O   0  0  0  0  0  0  0  0  0  0  0  0
   -2.1350   -0.2550    1.1300 N   0  0  0  0  0  0  0  0  0  0  0  0
   -3.4070   -0.6480    1.4060 C   0  0  0  0  0  0  0  0  0  0  0  0
   -4.4720    0.2710    1.2620 N   0  0  0  0  0  0  0  0  0  0  0  0
   -4.1620    1.9220    0.7190 P   0  0  0  0  0  0  0  0  0  0  0  0
   -4.8140    3.1320    1.7360 O   0  0  0  0  0  0  0  0  0  0  0  0
   -4.4770    2.1740   -0.9480 O   0  0  0  0  0  0  0  0  0  0  0  0
  1  2  2  0
  2  3  1  0
  3  4  1  0
  4  5  1  0
  5  6  2  0
  5 25  1  0
  6  7  1  0
  7  8  2  0
  8  9  1  0
  8 24  1  0
  9 10  1  0
 10 11  2  0
 10 12  1  0
 12 13  2  0
 12 23  1  0
 13 14  1  0
 14 15  1  0
 15 16  1  6
 15 23  1  0
 16 17  1  0
 17 18  1  0
 18 19  2  0
 18 20  1  0
 20 21  1  0
 21 22  2  0
 24 25  2  0
 25 26  1  0
 26 27  1  0
 27 28  1  0
 27 29  1  0
M  END
