
     RDKit          3D

 30 32  0  0  0  0  0  0  0  0999 V2000
   -7.1550    1.3670   -1.7480 N   0  0  0  0  0  0  0  0  0  0  0  0
   -6.3470    1.0930   -0.6100 C   0  0  0  0  0  0  0  0  0  0  0  0
   -6.6880    1.4730    0.6320 N   0  0  0  0  0  0  0  0  0  0  0  0
   -5.9540    1.2350    1.7320 C   0  0  0  0  0  0  0  0  0  0  0  0
   -4.7940    0.5720    1.6090 N   0  0  0  0  0  0  0  0  0  0  0  0
   -4.3890    0.1610    0.3960 C   0  0  0  0  0  0  0  0  0  0  0  0
   -5.1480    0.4090   -0.7300 C   0  0  0  0  0  0  0  0  0  0  0  0
   -4.5060   -0.1080   -1.7740 N   0  0  0  0  0  0  0  0  0  0  0  0
   -3.3730   -0.6660   -1.3120 C   0  0  0  0  0  0  0  0  0  0  0  0
   -3.2630   -0.5220    0.0200 N   0  0  0  0  0  0  0  0  0  0  0  0
   -2.1980   -0.9770    0.9050 C   0  0  1  0  0  0  0  0  0  0  0  0
   -1.5370   -2.2210    0.4080 C   0  0  0  0  0  0  0  0  0  0  0  0
   -0.1730   -1.7470    0.0050 C   0  0  2  0  0  0  0  0  0  0  0  0
    0.7700   -2.7140    0.3890 O   0  0  0  0  0  0  0  0  0  0  0  0
   -0.0160   -0.4770    0.7970 C   0  0  1  0  0  0  0  0  0  0  0  0
    0.7320    0.5890    0.0560 C   0  0  0  0  0  0  0  0  0  0  0  0
    2.0100    0.1830   -0.3220 O   0  0  0  0  0  0  0  0  0  0  0  0
    2.7320    1.4740   -1.1420 P   0  0  2  0  0  0  0  0  0  0  0  0
    3.3720    2.3670   -0.0920 O   0  0  0  0  0  0  0  0  0  0  0  0
    1.4910    2.3230   -1.9550 O   0  0  0  0  0  0  0  0  0  0  0  0
    3.9050    0.9300   -2.2320 O   0  0  0  0  0  0  0  0  0  0  0  0
    5.2700    0.4760   -1.3430 P   0  0  1  0  0  0  0  0  0  0  0  0
    6.3200   -0.1720   -2.2100 O   0  0  0  0  0  0  0  0  0  0  0  0
    5.8830    1.8960   -0.6180 O   0  0  0  0  0  0  0  0  0  0  0  0
    4.7650   -0.5640   -0.1000 O   0  0  0  0  0  0  0  0  0  0  0  0
    6.0220   -0.7940    1.0270 P   0  0  1  0  0  0  0  0  0  0  0  0
    5.4660   -1.2040    2.3740 O   0  0  0  0  0  0  0  0  0  0  0  0
    7.0370   -2.0100    0.4530 O   0  0  0  0  0  0  0  0  0  0  0  0
    6.8610    0.6560    1.2620 O   0  0  0  0  0  0  0  0  0  0  0  0
   -1.2530   -0.0180    1.1360 O   0  0  0  0  0  0  0  0  0  0  0  0
  1  2  1  0
  2  3  2  0
  2  7  1  0
  3  4  1  0
  4  5  2  0
  5  6  1  0
  6  7  2  0
  6 10  1  0
  7  8  1  0
  8  9  2  0
  9 10  1  0
 11 10  1  6
 11 12  1  0
 11 30  1  0
 12 13  1  0
 13 14  1  1
 13 15  1  0
 15 16  1  6
 15 30  1  0
 16 17  1  0
 17 18  1  0
 18 19  2  0
 18 20  1  6
 18 21  1  0
 21 22  1  0
 22 23  2  0
 22 24  1  1
 22 25  1  0
 25 26  1  0
 26 27  2  0
 26 28  1  6
 26 29  1  0
M  END
