
     RDKit          3D

 23 26  0  0  0  0  0  0  0  0999 V2000
    3.3660    0.9250   -1.7340 C   0  0  0  0  0  0  0  0  0  0  0  0
    4.1390    0.2120   -0.6810 C   0  0  0  0  0  0  0  0  0  0  0  0
    5.4370    0.3000   -0.4950 C   0  0  0  0  0  0  0  0  0  0  0  0
    5.8650   -0.5460    0.6460 C   0  0  0  0  0  0  0  0  0  0  0  0
    4.5900   -1.1390    1.0890 C   0  0  0  0  0  0  0  0  0  0  0  0
    3.5950   -0.6950    0.3160 C   0  0  0  0  0  0  0  0  0  0  0  0
    2.2430   -1.0680    0.4710 N   0  0  0  0  0  0  0  0  0  0  0  0
    1.1920   -0.1230    0.5930 C   0  0  0  0  0  0  0  0  0  0  0  0
    1.5010    1.1790    0.5590 N   0  0  0  0  0  0  0  0  0  0  0  0
    0.5810    2.1340    0.6660 C   0  0  0  0  0  0  0  0  0  0  0  0
   -0.7400    1.8000    0.8170 C   0  0  0  0  0  0  0  0  0  0  0  0
   -1.1340    0.4780    0.8600 C   0  0  0  0  0  0  0  0  0  0  0  0
   -0.1310   -0.4740    0.7430 C   0  0  0  0  0  0  0  0  0  0  0  0
   -0.7430   -1.6870    0.8120 C   0  0  0  0  0  0  0  0  0  0  0  0
   -2.0930   -1.4350    0.9660 C   0  0  0  0  0  0  0  0  0  0  0  0
   -3.1170   -2.5090    1.0820 C   0  0  0  0  0  0  0  0  0  0  0  0
   -2.3290   -0.1250    0.9960 N   0  0  0  0  0  0  0  0  0  0  0  0
   -3.6220    0.5380    1.1450 C   0  0  0  0  0  0  0  0  0  0  0  0
   -4.2400    0.7770   -0.1620 C   0  0  0  0  0  0  0  0  0  0  0  0
   -4.1300    1.8430   -0.9740 N   0  0  0  0  0  0  0  0  0  0  0  0
   -4.8810    1.6340   -2.0920 C   0  0  0  0  0  0  0  0  0  0  0  0
   -5.4470    0.4320   -1.9500 N   0  0  0  0  0  0  0  0  0  0  0  0
   -5.0620   -0.0810   -0.7920 N   0  0  0  0  0  0  0  0  0  0  0  0
  1  2  1  0
  2  3  2  0
  2  6  1  0
  3  4  1  0
  4  5  1  0
  5  6  2  0
  6  7  1  0
  7  8  1  0
  8  9  2  0
  8 13  1  0
  9 10  1  0
 10 11  2  0
 11 12  1  0
 12 13  2  0
 12 17  1  0
 13 14  1  0
 14 15  2  0
 15 16  1  0
 15 17  1  0
 17 18  1  0
 18 19  1  0
 19 20  1  0
 19 23  2  0
 20 21  2  0
 21 22  1  0
 22 23  1  0
M  END
