
     RDKit          3D

 23 26  0  0  0  0  0  0  0  0999 V2000
   -3.4270    2.4310   -0.8420 C   0  0  0  0  0  0  0  0  0  0  0  0
   -4.4090    2.0010   -0.1590 C   0  0  0  0  0  0  0  0  0  0  0  0
   -4.3430    0.8570    0.7760 C   0  0  0  0  0  0  0  0  0  0  0  0
   -5.4510    0.5310    1.4140 C   0  0  0  0  0  0  0  0  0  0  0  0
   -5.7510   -0.5020    2.3760 C   0  0  0  0  0  0  0  0  0  0  0  0
   -3.0980    0.1370    0.9700 C   0  0  0  0  0  0  0  0  0  0  0  0
   -1.9250    0.4250    0.3450 N   0  0  0  0  0  0  0  0  0  0  0  0
   -0.9990   -0.4220    0.7480 C   0  0  0  0  0  0  0  0  0  0  0  0
    0.4170   -0.4740    0.3270 C   0  0  0  0  0  0  0  0  0  0  0  0
    0.9120    0.4140   -0.5760 C   0  0  0  0  0  0  0  0  0  0  0  0
    2.2560    0.3540   -0.9660 C   0  0  0  0  0  0  0  0  0  0  0  0
    3.0370    1.0410   -1.7960 N   0  0  0  0  0  0  0  0  0  0  0  0
    4.2950    0.5370   -1.7870 C   0  0  0  0  0  0  0  0  0  0  0  0
    5.4350    0.8610   -2.4310 N   0  0  0  0  0  0  0  0  0  0  0  0
    6.5820    0.1850   -2.2430 C   0  0  0  0  0  0  0  0  0  0  0  0
    6.6300   -0.8840   -1.3660 C   0  0  0  0  0  0  0  0  0  0  0  0
    5.4930   -1.2540   -0.6850 C   0  0  0  0  0  0  0  0  0  0  0  0
    4.3420   -0.5320   -0.9100 C   0  0  0  0  0  0  0  0  0  0  0  0
    3.0430   -0.6290   -0.4040 C   0  0  0  0  0  0  0  0  0  0  0  0
    2.4910   -1.4900    0.4950 C   0  0  0  0  0  0  0  0  0  0  0  0
    1.1910   -1.4180    0.8610 N   0  0  0  0  0  0  0  0  0  0  0  0
   -1.5830   -1.2340    1.6170 N   0  0  0  0  0  0  0  0  0  0  0  0
   -2.8680   -0.9090    1.7670 N   0  0  0  0  0  0  0  0  0  0  0  0
  1  2  2  0
  2  3  1  0
  3  4  2  3
  3  6  1  0
  4  5  1  0
  6  7  2  0
  6 23  1  0
  7  8  1  0
  8  9  1  0
  8 22  2  0
  9 10  2  0
  9 21  1  0
 10 11  1  0
 11 12  1  0
 11 19  2  0
 12 13  1  0
 13 14  2  0
 13 18  1  0
 14 15  1  0
 15 16  2  0
 16 17  1  0
 17 18  2  0
 18 19  1  0
 19 20  1  0
 20 21  2  0
 22 23  1  0
M  END
