
     RDKit          3D

 23 26  0  0  0  0  0  0  0  0999 V2000
   -6.5870    0.2370    0.5940 C   0  0  0  0  0  0  0  0  0  0  0  0
   -5.1280    0.6380    0.4410 C   0  0  2  0  0  0  0  0  0  0  0  0
   -4.8390    1.1510   -0.9460 C   0  0  0  0  0  0  0  0  0  0  0  0
   -4.3120   -0.5790    0.7300 C   0  0  0  0  0  0  0  0  0  0  0  0
   -4.7260   -1.8060    1.0620 N   0  0  0  0  0  0  0  0  0  0  0  0
   -3.7080   -2.6150    1.2380 N   0  0  0  0  0  0  0  0  0  0  0  0
   -2.5700   -1.9100    1.0170 C   0  0  0  0  0  0  0  0  0  0  0  0
   -1.2670   -2.2570    1.0640 N   0  0  0  0  0  0  0  0  0  0  0  0
   -0.3570   -1.2870    0.7810 C   0  0  0  0  0  0  0  0  0  0  0  0
   -0.6930    0.0060    0.4550 C   0  0  0  0  0  0  0  0  0  0  0  0
    0.2850    0.9700    0.1370 N   0  0  0  0  0  0  0  0  0  0  0  0
    1.6680    0.7670   -0.0180 C   0  0  0  0  0  0  0  0  0  0  0  0
    2.5930    1.6950    0.4950 C   0  0  0  0  0  0  0  0  0  0  0  0
    3.9460    1.5400    0.3230 C   0  0  0  0  0  0  0  0  0  0  0  0
    4.4620    0.4620   -0.3620 C   0  0  0  0  0  0  0  0  0  0  0  0
    3.5910   -0.4690   -0.8810 C   0  0  0  0  0  0  0  0  0  0  0  0
    4.3880   -1.4110   -1.5000 C   0  0  0  0  0  0  0  0  0  0  0  0
    5.7070   -1.0580   -1.3590 C   0  0  0  0  0  0  0  0  0  0  0  0
    5.7400    0.0900   -0.6620 N   0  0  0  0  0  0  0  0  0  0  0  0
    6.9200    0.8490   -0.2660 C   0  0  0  0  0  0  0  0  0  0  0  0
    2.2350   -0.2920   -0.6960 C   0  0  0  0  0  0  0  0  0  0  0  0
   -2.0230    0.3370    0.4140 N   0  0  0  0  0  0  0  0  0  0  0  0
   -2.9120   -0.6210    0.6940 C   0  0  0  0  0  0  0  0  0  0  0  0
  2  1  1  6
  2  3  1  0
  2  4  1  0
  4  5  2  0
  4 23  1  0
  5  6  1  0
  6  7  1  0
  7  8  2  0
  7 23  1  0
  8  9  1  0
  9 10  2  0
 10 11  1  0
 10 22  1  0
 11 12  1  0
 12 13  2  0
 12 21  1  0
 13 14  1  0
 14 15  2  0
 15 16  1  0
 15 19  1  0
 16 17  1  0
 16 21  2  0
 17 18  2  0
 18 19  1  0
 19 20  1  0
 22 23  2  0
M  END
