
     RDKit          3D

 23 26  0  0  0  0  0  0  0  0999 V2000
    7.8700    0.0040   -0.1680 C   0  0  0  0  0  0  0  0  0  0  0  0
    6.4310   -0.3600    0.0230 C   0  0  0  0  0  0  0  0  0  0  0  0
    5.3870    0.4530   -0.2060 N   0  0  0  0  0  0  0  0  0  0  0  0
    4.2360   -0.1790    0.0640 C   0  0  0  0  0  0  0  0  0  0  0  0
    2.8960    0.3700   -0.0620 C   0  0  0  0  0  0  0  0  0  0  0  0
    2.6030    1.6470   -0.4850 C   0  0  0  0  0  0  0  0  0  0  0  0
    1.2380    1.7510   -0.4570 C   0  0  0  0  0  0  0  0  0  0  0  0
    0.6720    0.5950   -0.0350 N   0  0  0  0  0  0  0  0  0  0  0  0
   -0.7250    0.3890    0.1000 C   0  0  0  0  0  0  0  0  0  0  0  0
   -1.3750    0.3950    1.2940 C   0  0  0  0  0  0  0  0  0  0  0  0
   -2.7570    0.1860    1.3740 C   0  0  0  0  0  0  0  0  0  0  0  0
   -3.4930   -0.0320    0.2430 C   0  0  0  0  0  0  0  0  0  0  0  0
   -4.9260   -0.2570    0.2380 C   0  0  0  0  0  0  0  0  0  0  0  0
   -5.6860   -0.2720    1.3840 C   0  0  0  0  0  0  0  0  0  0  0  0
   -7.0360   -0.4870    1.3500 N   0  0  0  0  0  0  0  0  0  0  0  0
   -7.6780   -0.6930    0.1890 C   0  0  0  0  0  0  0  0  0  0  0  0
   -6.9190   -0.6770   -0.9560 C   0  0  0  0  0  0  0  0  0  0  0  0
   -5.5980   -0.4680   -0.9320 N   0  0  0  0  0  0  0  0  0  0  0  0
   -2.8370   -0.0390   -0.9680 C   0  0  0  0  0  0  0  0  0  0  0  0
   -1.4840    0.1660   -1.0440 C   0  0  0  0  0  0  0  0  0  0  0  0
    1.6870   -0.2410    0.2030 C   0  0  0  0  0  0  0  0  0  0  0  0
    4.6030   -1.4150    0.4690 N   0  0  0  0  0  0  0  0  0  0  0  0
    5.9090   -1.5180    0.4440 N   0  0  0  0  0  0  0  0  0  0  0  0
  1  2  1  0
  2  3  2  0
  2 23  1  0
  3  4  1  0
  4  5  1  0
  4 22  2  0
  5  6  1  0
  5 21  2  0
  6  7  2  0
  7  8  1  0
  8  9  1  0
  8 21  1  0
  9 10  2  0
  9 20  1  0
 10 11  1  0
 11 12  2  0
 12 13  1  0
 12 19  1  0
 13 14  2  0
 13 18  1  0
 14 15  1  0
 15 16  2  0
 16 17  1  0
 17 18  2  0
 19 20  2  0
 22 23  1  0
M  END
