
     RDKit          3D

 23 26  0  0  0  0  0  0  0  0999 V2000
   -0.5060   -1.0130   -1.7530 C   0  0  0  0  0  0  0  0  0  0  0  0
   -0.5260   -0.3820   -0.4350 C   0  0  0  0  0  0  0  0  0  0  0  0
    0.5730   -0.0240    0.1920 C   0  0  0  0  0  0  0  0  0  0  0  0
    1.9000   -0.2570   -0.4530 C   0  0  0  0  0  0  0  0  0  0  0  0
    2.5550    1.0810   -0.6930 C   0  0  0  0  0  0  0  0  0  0  0  0
    3.8450    0.9160   -1.3170 N   0  0  0  0  0  0  0  0  0  0  0  0
    4.9310    0.3960   -0.5760 C   0  0  0  0  0  0  0  0  0  0  0  0
    5.0040    0.0440    0.7430 C   0  0  0  0  0  0  0  0  0  0  0  0
    6.2300   -0.4240    1.0370 N   0  0  0  0  0  0  0  0  0  0  0  0
    6.9140   -0.3600   -0.0990 C   0  0  0  0  0  0  0  0  0  0  0  0
    6.1640    0.1280   -1.0850 N   0  0  0  0  0  0  0  0  0  0  0  0
    0.5720    0.5300    1.5610 C   0  0  0  0  0  0  0  0  0  0  0  0
   -0.6920    1.1250    2.0350 C   0  0  0  0  0  0  0  0  0  0  0  0
   -1.8810    0.5740    1.3840 C   0  0  0  0  0  0  0  0  0  0  0  0
   -3.1420    0.7740    1.9720 C   0  0  0  0  0  0  0  0  0  0  0  0
   -4.2330    0.3070    1.3090 C   0  0  0  0  0  0  0  0  0  0  0  0
   -5.6000    0.3380    1.6040 C   0  0  0  0  0  0  0  0  0  0  0  0
   -6.2750   -0.2670    0.6120 N   0  0  0  0  0  0  0  0  0  0  0  0
   -5.4160   -0.6840   -0.3020 N   0  0  0  0  0  0  0  0  0  0  0  0
   -5.7400   -1.3880   -1.5370 C   0  0  0  0  0  0  0  0  0  0  0  0
   -4.1540   -0.3450    0.0990 C   0  0  0  0  0  0  0  0  0  0  0  0
   -2.9520   -0.5290   -0.4460 N   0  0  0  0  0  0  0  0  0  0  0  0
   -1.8240   -0.0740    0.1910 C   0  0  0  0  0  0  0  0  0  0  0  0
  1  2  1  0
  2  3  2  0
  2 23  1  0
  3  4  1  0
  3 12  1  0
  4  5  1  0
  5  6  1  0
  6  7  1  0
  7  8  2  0
  7 11  1  0
  8  9  1  0
  9 10  1  0
 10 11  2  0
 12 13  1  0
 13 14  1  0
 14 15  2  0
 14 23  1  0
 15 16  1  0
 16 17  1  0
 16 21  2  0
 17 18  2  0
 18 19  1  0
 19 20  1  0
 19 21  1  0
 21 22  1  0
 22 23  2  0
M  END
