
     RDKit          3D

 23 26  0  0  0  0  0  0  0  0999 V2000
    7.3440   -0.6170    0.3590 C   0  0  0  0  0  0  0  0  0  0  0  0
    6.7270   -1.8290    0.1630 C   0  0  0  0  0  0  0  0  0  0  0  0
    5.3600   -1.8660   -0.0000 C   0  0  0  0  0  0  0  0  0  0  0  0
    4.6040   -0.7190    0.0290 C   0  0  0  0  0  0  0  0  0  0  0  0
    3.1720   -0.7410   -0.1460 N   0  0  0  0  0  0  0  0  0  0  0  0
    2.5140    0.4670   -0.1030 N   0  0  0  0  0  0  0  0  0  0  0  0
    1.1020    0.5740   -0.1610 C   0  0  0  0  0  0  0  0  0  0  0  0
    0.5090    1.1660   -1.2850 C   0  0  0  0  0  0  0  0  0  0  0  0
   -0.8030    1.2900   -1.3030 N   0  0  0  0  0  0  0  0  0  0  0  0
   -1.6540    0.8940   -0.3230 C   0  0  0  0  0  0  0  0  0  0  0  0
   -3.0550    1.1160   -0.4210 N   0  0  0  0  0  0  0  0  0  0  0  0
   -3.6390    2.3190   -0.7150 C   0  0  0  0  0  0  0  0  0  0  0  0
   -4.9950    2.1950   -0.7120 C   0  0  0  0  0  0  0  0  0  0  0  0
   -5.2590    0.8780   -0.4090 C   0  0  0  0  0  0  0  0  0  0  0  0
   -6.4400    0.1840   -0.2660 C   0  0  0  0  0  0  0  0  0  0  0  0
   -6.4430   -1.1580    0.0500 C   0  0  0  0  0  0  0  0  0  0  0  0
   -5.2450   -1.8130    0.2250 C   0  0  0  0  0  0  0  0  0  0  0  0
   -4.0650   -1.1130    0.0820 C   0  0  0  0  0  0  0  0  0  0  0  0
   -4.0350    0.2280   -0.2330 C   0  0  0  0  0  0  0  0  0  0  0  0
   -1.0710    0.3240    0.7490 N   0  0  0  0  0  0  0  0  0  0  0  0
    0.2610    0.1630    0.8400 C   0  0  0  0  0  0  0  0  0  0  0  0
    5.2340    0.4740    0.2260 N   0  0  0  0  0  0  0  0  0  0  0  0
    6.5520    0.5290    0.3850 C   0  0  0  0  0  0  0  0  0  0  0  0
  1  2  2  0
  1 23  1  0
  2  3  1  0
  3  4  2  0
  4  5  1  0
  4 22  1  0
  5  6  1  0
  6  7  1  0
  7  8  2  0
  7 21  1  0
  8  9  1  0
  9 10  2  0
 10 11  1  0
 10 20  1  0
 11 12  1  0
 11 19  1  0
 12 13  2  0
 13 14  1  0
 14 15  2  0
 14 19  1  0
 15 16  1  0
 16 17  2  0
 17 18  1  0
 18 19  2  0
 20 21  2  0
 22 23  2  0
M  END
