
     RDKit          3D

 23 26  0  0  0  0  0  0  0  0999 V2000
   -2.3460    2.1630   -0.4380 C   0  0  0  0  0  0  0  0  0  0  0  0
   -2.6930    0.7980    0.0580 C   0  0  0  0  0  0  0  0  0  0  0  0
   -1.8400    0.0960    0.8950 C   0  0  0  0  0  0  0  0  0  0  0  0
   -2.1520   -1.1650    1.3570 C   0  0  0  0  0  0  0  0  0  0  0  0
   -1.2610   -1.8650    2.2090 N   0  0  0  0  0  0  0  0  0  0  0  0
   -0.0010   -1.3410    2.6230 C   0  0  0  0  0  0  0  0  0  0  0  0
    0.9150   -1.1340    1.4710 C   0  0  0  0  0  0  0  0  0  0  0  0
    0.7140   -1.5350    0.1680 C   0  0  0  0  0  0  0  0  0  0  0  0
    1.7820   -1.1490   -0.5450 N   0  0  0  0  0  0  0  0  0  0  0  0
    2.6720   -0.5220    0.2040 N   0  0  0  0  0  0  0  0  0  0  0  0
    3.9250    0.0310   -0.1920 C   0  0  0  0  0  0  0  0  0  0  0  0
    4.1810    1.3520    0.0850 C   0  0  0  0  0  0  0  0  0  0  0  0
    5.3900    1.9530   -0.2780 C   0  0  0  0  0  0  0  0  0  0  0  0
    6.3420    1.1890   -0.9300 C   0  0  0  0  0  0  0  0  0  0  0  0
    6.0440   -0.1230   -1.1860 C   0  0  0  0  0  0  0  0  0  0  0  0
    4.8680   -0.6840   -0.8260 N   0  0  0  0  0  0  0  0  0  0  0  0
    2.1400   -0.5090    1.4570 C   0  0  0  0  0  0  0  0  0  0  0  0
   -3.3270   -1.6770    0.9530 N   0  0  0  0  0  0  0  0  0  0  0  0
   -4.1750   -1.0310    0.1470 C   0  0  0  0  0  0  0  0  0  0  0  0
   -5.4070   -1.3330   -0.3960 C   0  0  0  0  0  0  0  0  0  0  0  0
   -5.8430   -0.2870   -1.1710 C   0  0  0  0  0  0  0  0  0  0  0  0
   -4.8870    0.6570   -1.1090 N   0  0  0  0  0  0  0  0  0  0  0  0
   -3.8800    0.2320   -0.3260 C   0  0  0  0  0  0  0  0  0  0  0  0
  1  2  1  0
  2  3  2  0
  2 23  1  0
  3  4  1  0
  4  5  1  0
  4 18  2  0
  5  6  1  0
  6  7  1  0
  7  8  1  0
  7 17  2  0
  8  9  2  0
  9 10  1  0
 10 11  1  0
 10 17  1  0
 11 12  2  0
 11 16  1  0
 12 13  1  0
 13 14  2  0
 14 15  1  0
 15 16  2  0
 18 19  1  0
 19 20  1  0
 19 23  2  0
 20 21  2  0
 21 22  1  0
 22 23  1  0
M  END
