
     RDKit          3D

 35 39  0  0  0  0  0  0  0  0999 V2000
   -7.5590   -2.7250   -0.2660 C   0  0  0  0  0  0  0  0  0  0  0  0
   -6.6430   -1.6610   -0.1410 O   0  0  0  0  0  0  0  0  0  0  0  0
   -7.0310   -0.3610    0.1320 C   0  0  0  0  0  0  0  0  0  0  0  0
   -8.2660    0.1280    0.3230 N   0  0  0  0  0  0  0  0  0  0  0  0
   -8.1600    1.4250    0.5560 N   0  0  0  0  0  0  0  0  0  0  0  0
   -6.8460    1.7990    0.5190 C   0  0  0  0  0  0  0  0  0  0  0  0
   -6.2040    2.9580    0.6830 N   0  0  0  0  0  0  0  0  0  0  0  0
   -4.8660    3.0450    0.5910 C   0  0  0  0  0  0  0  0  0  0  0  0
   -4.0940    1.9330    0.3220 C   0  0  0  0  0  0  0  0  0  0  0  0
   -2.6330    2.0390    0.2230 C   0  0  0  0  0  0  0  0  0  0  0  0
   -1.7620    1.0110   -0.0380 C   0  0  0  0  0  0  0  0  0  0  0  0
   -0.5100    1.4980   -0.0490 N   0  0  0  0  0  0  0  0  0  0  0  0
    0.7050    0.7770   -0.2810 C   0  0  0  0  0  0  0  0  0  0  0  0
    1.0850    0.3370   -1.5270 C   0  0  0  0  0  0  0  0  0  0  0  0
    0.2720    0.6020   -2.5640 F   0  0  0  0  0  0  0  0  0  0  0  0
    2.2680   -0.3530   -1.6850 C   0  0  0  0  0  0  0  0  0  0  0  0
    3.1210   -0.6330   -0.6110 C   0  0  0  0  0  0  0  0  0  0  0  0
    2.7490   -0.2000    0.6160 C   0  0  0  0  0  0  0  0  0  0  0  0
    3.5360   -0.4590    1.7600 N   0  0  0  0  0  0  0  0  0  0  0  0
    5.1850    0.0090    1.8260 S   0  0  1  0  0  0  0  0  0  0  0  0
    5.2710    1.5170    1.7390 O   0  0  0  0  0  0  0  0  0  0  0  0
    5.7750   -0.3320    3.1910 O   0  0  0  0  0  0  0  0  0  0  0  0
    6.1770   -0.7400    0.6220 C   0  0  0  0  0  0  0  0  0  0  0  0
    6.6280   -2.0230    0.8000 C   0  0  0  0  0  0  0  0  0  0  0  0
    7.4540   -2.6250   -0.1590 C   0  0  0  0  0  0  0  0  0  0  0  0
    7.8130   -1.9180   -1.2870 C   0  0  0  0  0  0  0  0  0  0  0  0
    7.3510   -0.6290   -1.4520 C   0  0  0  0  0  0  0  0  0  0  0  0
    7.8250    0.3820   -2.9990 Br  0  0  0  0  0  0  0  0  0  0  0  0
    6.5290   -0.0260   -0.5010 C   0  0  0  0  0  0  0  0  0  0  0  0
    1.5470    0.5000    0.7750 C   0  0  0  0  0  0  0  0  0  0  0  0
    1.1730    0.9340    2.0060 F   0  0  0  0  0  0  0  0  0  0  0  0
   -0.6250    2.7920    0.2010 N   0  0  0  0  0  0  0  0  0  0  0  0
   -1.8900    3.1370    0.3680 N   0  0  0  0  0  0  0  0  0  0  0  0
   -4.7250    0.7220    0.1470 C   0  0  0  0  0  0  0  0  0  0  0  0
   -6.0990    0.6720    0.2490 C   0  0  0  0  0  0  0  0  0  0  0  0
  1  2  1  0
  2  3  1  0
  3  4  2  0
  3 35  1  0
  4  5  1  0
  5  6  1  0
  6  7  2  0
  6 35  1  0
  7  8  1  0
  8  9  2  0
  9 10  1  0
  9 34  1  0
 10 11  2  0
 10 33  1  0
 11 12  1  0
 12 13  1  0
 12 32  1  0
 13 14  2  0
 13 30  1  0
 14 15  1  0
 14 16  1  0
 16 17  2  0
 17 18  1  0
 18 19  1  0
 18 30  2  0
 20 19  1  1
 20 21  2  0
 20 22  2  0
 20 23  1  0
 23 24  2  0
 23 29  1  0
 24 25  1  0
 25 26  2  0
 26 27  1  0
 27 28  1  0
 27 29  2  0
 30 31  1  0
 32 33  2  0
 34 35  2  0
M  END
