
     RDKit          3D

 34 37  0  0  0  0  0  0  0  0999 V2000
   -4.3520    2.5420   -2.8560 C   0  0  0  0  0  0  0  0  0  0  0  0
   -4.3520    1.0420   -2.7300 C   0  0  0  0  0  0  0  0  0  0  0  0
   -3.8780    0.6890   -1.4060 N   0  0  0  0  0  0  0  0  0  0  0  0
   -3.7640   -0.6850   -0.9950 C   0  0  0  0  0  0  0  0  0  0  0  0
   -4.1110   -1.5220   -1.8870 O   0  0  0  0  0  0  0  0  0  0  0  0
   -3.2890   -1.0540    0.3430 C   0  0  2  0  0  0  0  0  0  0  0  0
   -4.1240   -0.2490    1.3540 C   0  0  0  0  0  0  0  0  0  0  0  0
   -1.8840   -0.6300    0.5890 C   0  0  0  0  0  0  0  0  0  0  0  0
   -1.1150    0.1030   -0.2780 C   0  0  0  0  0  0  0  0  0  0  0  0
    0.1970    0.4630    0.0600 C   0  0  0  0  0  0  0  0  0  0  0  0
    0.7400    0.0900    1.2640 C   0  0  0  0  0  0  0  0  0  0  0  0
    2.1060    0.4350    1.6740 C   0  0  0  0  0  0  0  0  0  0  0  0
    2.9830    0.9030    0.6340 N   0  0  0  0  0  0  0  0  0  0  0  0
    3.3910    0.0980   -0.4670 C   0  0  0  0  0  0  0  0  0  0  0  0
    2.9540   -1.1600   -0.4860 C   0  0  0  0  0  0  0  0  0  0  0  0
    3.2350   -2.1400   -1.4910 C   0  0  0  0  0  0  0  0  0  0  0  0
    2.6660   -3.4190   -1.3840 O   0  0  0  0  0  0  0  0  0  0  0  0
    4.1790   -1.7870   -2.7120 S   0  0  1  0  0  0  0  0  0  0  0  0
    3.5060   -1.9890   -4.0380 O   0  0  0  0  0  0  0  0  0  0  0  0
    4.6670   -0.1230   -2.5500 C   0  0  0  0  0  0  0  0  0  0  0  0
    4.2600    0.6040   -1.5250 C   0  0  0  0  0  0  0  0  0  0  0  0
    4.6510    1.9220   -1.4020 O   0  0  0  0  0  0  0  0  0  0  0  0
    4.7590    2.4400   -0.0940 C   0  0  0  0  0  0  0  0  0  0  0  0
    3.4860    2.2690    0.6930 C   0  0  1  0  0  0  0  0  0  0  0  0
    2.4850    3.2360    0.0670 C   0  0  0  0  0  0  0  0  0  0  0  0
    3.7370    2.7390    2.1040 C   0  0  0  0  0  0  0  0  0  0  0  0
   -0.0490   -0.6430    2.1130 C   0  0  0  0  0  0  0  0  0  0  0  0
   -1.3430   -1.0100    1.8030 C   0  0  0  0  0  0  0  0  0  0  0  0
   -2.1630   -1.8020    2.6990 C   0  0  0  0  0  0  0  0  0  0  0  0
   -2.0330   -1.6420    3.9400 O   0  0  0  0  0  0  0  0  0  0  0  0
   -3.1290   -2.7760    2.1410 C   0  0  0  0  0  0  0  0  0  0  0  0
   -3.4770   -2.5110    0.6940 C   0  0  2  0  0  0  0  0  0  0  0  0
   -2.5730   -3.3780   -0.1590 C   0  0  0  0  0  0  0  0  0  0  0  0
   -1.2430   -3.0620    0.0290 F   0  0  0  0  0  0  0  0  0  0  0  0
  1  2  1  0
  2  3  1  0
  3  4  1  0
  4  5  2  0
  4  6  1  0
  6  7  1  1
  6  8  1  0
  6 32  1  0
  8  9  2  0
  8 28  1  0
  9 10  1  0
 10 11  2  0
 11 12  1  0
 11 27  1  0
 12 13  1  0
 13 14  1  0
 13 24  1  0
 14 15  2  0
 14 21  1  0
 15 16  1  0
 16 17  1  0
 16 18  2  0
 18 19  2  0
 18 20  1  1
 20 21  2  0
 21 22  1  0
 22 23  1  0
 23 24  1  0
 24 25  1  6
 24 26  1  0
 27 28  2  0
 28 29  1  0
 29 30  2  0
 29 31  1  0
 31 32  1  0
 32 33  1  6
 33 34  1  0
M  END
