
     RDKit          3D

 34 36  0  0  0  0  0  0  0  0999 V2000
    4.2120   -2.3520    0.3380 C   0  0  0  0  0  0  0  0  0  0  0  0
    2.8680   -1.7250    0.2160 C   0  0  0  0  0  0  0  0  0  0  0  0
    2.7510   -0.7210   -0.6750 C   0  0  0  0  0  0  0  0  0  0  0  0
    3.7450   -0.1560   -1.5400 C   0  0  0  0  0  0  0  0  0  0  0  0
    3.4410    0.8560   -2.3930 C   0  0  0  0  0  0  0  0  0  0  0  0
    2.2640    1.4010   -2.5110 F   0  0  0  0  0  0  0  0  0  0  0  0
    5.4560   -0.5370   -1.7130 S   0  0  2  0  0  0  0  0  0  0  0  0
    5.7910   -1.8230   -2.8520 C   0  0  0  0  0  0  0  0  0  0  0  0
    6.2000   -0.5550   -0.4390 O   0  0  0  0  0  0  0  0  0  0  0  0
    6.1150    0.7240   -2.4170 O   0  0  0  0  0  0  0  0  0  0  0  0
    1.3640   -0.0720   -0.7350 C   0  0  0  0  0  0  0  0  0  0  0  0
    1.2590    1.0340    0.2730 C   0  0  0  0  0  0  0  0  0  0  0  0
   -0.1460    1.4990    0.4890 C   0  0  1  0  0  0  0  0  0  0  0  0
   -0.3990    2.9160    0.1150 C   0  0  1  0  0  0  0  0  0  0  0  0
   -0.1430    3.2150   -1.2360 O   0  0  0  0  0  0  0  0  0  0  0  0
   -1.7740    3.4050    0.3700 C   0  0  0  0  0  0  0  0  0  0  0  0
   -2.0980    3.9760    1.5710 C   0  0  0  0  0  0  0  0  0  0  0  0
   -3.3710    4.4600    1.8410 C   0  0  0  0  0  0  0  0  0  0  0  0
   -4.3380    4.3610    0.8680 C   0  0  0  0  0  0  0  0  0  0  0  0
   -3.9870    3.7820   -0.3350 C   0  0  0  0  0  0  0  0  0  0  0  0
   -4.8600    3.6850   -1.2370 O   0  0  0  0  0  0  0  0  0  0  0  0
   -2.7240    3.3150   -0.5710 N   0  0  0  0  0  0  0  0  0  0  0  0
   -1.2070    0.5740    0.0350 C   0  0  0  0  0  0  0  0  0  0  0  0
   -1.4240   -0.6690    0.8520 C   0  0  1  0  0  0  0  0  0  0  0  0
   -2.5500   -0.2660    1.8510 C   0  0  0  0  0  0  0  0  0  0  0  0
   -3.2530   -1.4720    2.3760 C   0  0  0  0  0  0  0  0  0  0  0  0
   -4.1160   -2.0280    1.2700 C   0  0  0  0  0  0  0  0  0  0  0  0
   -3.4480   -1.6590   -0.0370 C   0  0  0  0  0  0  0  0  0  0  0  0
   -1.9860   -1.7750    0.1410 N   0  0  0  0  0  0  0  0  0  0  0  0
   -1.3960   -2.9220   -0.4070 C   0  0  0  0  0  0  0  0  0  0  0  0
   -2.1410   -3.7250   -1.1310 O   0  0  0  0  0  0  0  0  0  0  0  0
    0.0040   -3.3890   -0.2900 C   0  0  0  0  0  0  0  0  0  0  0  0
    0.6870   -2.8710    0.9080 C   0  0  0  0  0  0  0  0  0  0  0  0
    1.8030   -2.2290    1.0690 C   0  0  0  0  0  0  0  0  0  0  0  0
  1  2  1  0
  2  3  2  0
  2 34  1  0
  3  4  1  0
  3 11  1  0
  4  5  2  3
  4  7  1  0
  5  6  1  0
  7  8  1  6
  7  9  2  0
  7 10  2  0
 11 12  1  0
 13 12  1  6
 13 14  1  0
 13 23  1  0
 14 15  1  6
 14 16  1  0
 16 17  2  0
 16 22  1  0
 17 18  1  0
 18 19  2  0
 19 20  1  0
 20 21  2  0
 20 22  1  0
 24 23  1  6
 24 25  1  0
 24 29  1  0
 25 26  1  0
 26 27  1  0
 27 28  1  0
 28 29  1  0
 29 30  1  0
 30 31  2  0
 30 32  1  0
 32 33  1  0
 33 34  2  0
M  END
