
     RDKit          3D

 33 35  0  0  0  0  0  0  0  0999 V2000
   -5.4750   -2.5360   -2.4070 C   0  0  0  0  0  0  0  0  0  0  0  0
   -4.6080   -3.6870   -2.0020 C   0  0  0  0  0  0  0  0  0  0  0  0
   -3.8280   -3.3710   -0.8450 N   0  0  0  0  0  0  0  0  0  0  0  0
   -2.7610   -2.3930   -0.8940 C   0  0  0  0  0  0  0  0  0  0  0  0
   -2.8550   -1.3550   -0.1120 C   0  0  0  0  0  0  0  0  0  0  0  0
   -4.0660   -1.2240    0.7830 C   0  0  0  0  0  0  0  0  0  0  0  0
   -4.9730    0.2680    0.4370 S   0  0  2  0  0  0  0  0  0  0  0  0
   -6.3740    0.2810    1.5600 C   0  0  0  0  0  0  0  0  0  0  0  0
   -5.4110    0.3640   -0.9750 O   0  0  0  0  0  0  0  0  0  0  0  0
   -4.1920    1.5090    0.7490 O   0  0  0  0  0  0  0  0  0  0  0  0
   -1.7670   -0.3470   -0.0250 C   0  0  1  0  0  0  0  0  0  0  0  0
   -1.3490   -0.2890    1.4310 C   0  0  0  0  0  0  0  0  0  0  0  0
   -0.2750    0.6580    1.7370 C   0  0  0  0  0  0  0  0  0  0  0  0
    0.0720    0.6060    3.2620 C   0  0  1  0  0  0  0  0  0  0  0  0
    1.1650    1.5670    3.5860 C   0  0  0  0  0  0  0  0  0  0  0  0
   -1.0830    1.0020    3.9310 O   0  0  0  0  0  0  0  0  0  0  0  0
   -0.7420   -0.5430   -0.9920 C   0  0  0  0  0  0  0  0  0  0  0  0
   -0.7260   -1.6130   -1.7690 C   0  0  0  0  0  0  0  0  0  0  0  0
    0.2640   -1.9800   -2.7890 N   0  0  0  0  0  0  0  0  0  0  0  0
    1.6250   -1.6070   -2.8860 C   0  0  0  0  0  0  0  0  0  0  0  0
    2.5220   -2.4460   -3.6990 C   0  0  0  0  0  0  0  0  0  0  0  0
    2.2370   -0.5490   -2.3170 C   0  0  0  0  0  0  0  0  0  0  0  0
    1.6700    0.4840   -1.4590 C   0  0  0  0  0  0  0  0  0  0  0  0
    2.4370    1.4140   -0.9390 C   0  0  0  0  0  0  0  0  0  0  0  0
    3.8700    1.5460   -1.1260 C   0  0  0  0  0  0  0  0  0  0  0  0
    4.5920    1.4380    0.2100 C   0  0  1  0  0  0  0  0  0  0  0  0
    6.0670    1.5600    0.1080 C   0  0  0  0  0  0  0  0  0  0  0  0
    6.3840    2.9620    0.5270 C   0  0  0  0  0  0  0  0  0  0  0  0
    5.4020    3.1730    1.6820 C   0  0  0  0  0  0  0  0  0  0  0  0
    4.1510    2.4700    1.1900 C   0  0  0  0  0  0  0  0  0  0  0  0
    0.2340    0.5470   -1.1320 C   0  0  0  0  0  0  0  0  0  0  0  0
   -0.2160    1.6780   -0.9530 O   0  0  0  0  0  0  0  0  0  0  0  0
   -1.7050   -2.5960   -1.7690 O   0  0  0  0  0  0  0  0  0  0  0  0
  1  2  1  0
  2  3  1  0
  3  4  1  0
  4  5  2  0
  4 33  1  0
  5  6  1  0
  5 11  1  0
  6  7  1  0
  7  8  1  1
  7  9  2  0
  7 10  2  0
 11 12  1  1
 11 17  1  0
 12 13  1  0
 13 14  1  0
 14 15  1  6
 14 16  1  0
 17 18  2  0
 17 31  1  0
 18 19  1  0
 18 33  1  0
 19 20  1  0
 20 21  1  0
 20 22  2  0
 22 23  1  0
 23 24  2  3
 23 31  1  0
 24 25  1  0
 26 25  1  6
 26 27  1  0
 26 30  1  0
 27 28  1  0
 28 29  1  0
 29 30  1  0
 31 32  2  0
M  END
