
     RDKit          3D

 34 37  0  0  0  0  0  0  0  0999 V2000
   -6.1940   -0.4410   -2.0610 C   0  0  0  0  0  0  0  0  0  0  0  0
   -4.8810   -0.3480   -2.8010 C   0  0  0  0  0  0  0  0  0  0  0  0
   -3.8120   -0.4900   -1.8540 N   0  0  0  0  0  0  0  0  0  0  0  0
   -3.6630    0.4480   -0.8060 C   0  0  0  0  0  0  0  0  0  0  0  0
   -4.4120    1.5710   -0.5230 C   0  0  0  0  0  0  0  0  0  0  0  0
   -3.8930    2.1700    0.5880 N   0  0  0  0  0  0  0  0  0  0  0  0
   -2.8600    1.4840    1.0160 N   0  0  0  0  0  0  0  0  0  0  0  0
   -2.0180    1.7480    2.1440 C   0  0  0  0  0  0  0  0  0  0  0  0
   -2.6420    2.0140    3.3410 C   0  0  0  0  0  0  0  0  0  0  0  0
   -1.9170    2.2800    4.4970 C   0  0  0  0  0  0  0  0  0  0  0  0
   -0.5930    2.2690    4.4100 N   0  0  0  0  0  0  0  0  0  0  0  0
    0.0610    2.0120    3.2510 C   0  0  0  0  0  0  0  0  0  0  0  0
   -0.6480    1.7430    2.0780 C   0  0  0  0  0  0  0  0  0  0  0  0
   -2.6810    0.4290    0.2010 C   0  0  0  0  0  0  0  0  0  0  0  0
   -1.6890   -0.5860    0.2580 N   0  0  0  0  0  0  0  0  0  0  0  0
   -1.6580   -1.5120    1.1680 C   0  0  0  0  0  0  0  0  0  0  0  0
   -2.7030   -1.5270    2.2090 C   0  0  0  0  0  0  0  0  0  0  0  0
   -2.6670   -2.4690    3.1210 C   0  0  0  0  0  0  0  0  0  0  0  0
   -1.6370   -3.4980    3.1460 C   0  0  0  0  0  0  0  0  0  0  0  0
   -1.6290   -4.7440    4.3960 Cl  0  0  0  0  0  0  0  0  0  0  0  0
   -0.6760   -3.5560    2.2620 C   0  0  0  0  0  0  0  0  0  0  0  0
   -0.6260   -2.5260    1.1780 C   0  0  0  0  0  0  0  0  0  0  0  0
    0.3400   -2.5660    0.3060 C   0  0  0  0  0  0  0  0  0  0  0  0
    0.6080   -1.6970   -0.7850 C   0  0  0  0  0  0  0  0  0  0  0  0
    1.6620   -1.8800   -1.5970 C   0  0  0  0  0  0  0  0  0  0  0  0
    2.5120   -2.8940   -1.4140 F   0  0  0  0  0  0  0  0  0  0  0  0
    1.8990   -0.9450   -2.7110 C   0  0  0  0  0  0  0  0  0  0  0  0
    3.2000   -0.3340   -2.5030 N   0  0  1  0  0  0  0  0  0  0  0  0
    3.2260    0.9220   -3.2240 C   0  0  0  0  0  0  0  0  0  0  0  0
    4.6120    1.4660   -3.2090 C   0  0  0  0  0  0  0  0  0  0  0  0
    5.4190    0.8720   -2.1120 C   0  0  1  0  0  0  0  0  0  0  0  0
    6.6430    1.7380   -1.8890 C   0  0  0  0  0  0  0  0  0  0  0  0
    4.6620    0.6360   -0.8280 C   0  0  0  0  0  0  0  0  0  0  0  0
    3.3040    0.0220   -1.0890 C   0  0  0  0  0  0  0  0  0  0  0  0
  1  2  1  0
  2  3  1  0
  3  4  1  0
  4  5  1  0
  4 14  2  0
  5  6  2  0
  6  7  1  0
  7  8  1  0
  7 14  1  0
  8  9  2  0
  8 13  1  0
  9 10  1  0
 10 11  2  0
 11 12  1  0
 12 13  2  0
 14 15  1  0
 15 16  2  3
 16 17  1  0
 16 22  1  0
 17 18  2  0
 18 19  1  0
 19 20  1  0
 19 21  2  0
 21 22  1  0
 22 23  2  3
 23 24  1  0
 24 25  2  3
 25 26  1  0
 25 27  1  0
 28 27  1  1
 28 29  1  0
 28 34  1  0
 29 30  1  0
 30 31  1  0
 31 32  1  1
 31 33  1  0
 33 34  1  0
M  CHG  2  11   1  28   1
M  END
