
     RDKit          3D

 30 29  0  0  0  0  0  0  0  0999 V2000
   -0.4030    2.7050    3.4090 C   0  0  0  0  0  0  0  0  0  0  0  0
    0.0250    1.3570    3.0100 N   0  0  0  0  0  0  0  0  0  0  0  0
   -0.3150    0.8740    1.7120 C   0  0  0  0  0  0  0  0  0  0  0  0
   -0.9770    1.6730    0.9930 O   0  0  0  0  0  0  0  0  0  0  0  0
    0.0630   -0.4040    1.2640 N   0  0  0  0  0  0  0  0  0  0  0  0
   -0.3690   -0.7520   -0.1600 C   0  0  2  0  0  0  0  0  0  0  0  0
    0.1820   -2.0450   -0.4970 C   0  0  0  0  0  0  0  0  0  0  0  0
   -0.0120   -2.6550   -1.8350 C   0  0  2  0  0  0  0  0  0  0  0  0
    0.5020   -1.9190   -2.8930 F   0  0  0  0  0  0  0  0  0  0  0  0
   -1.3010   -3.0580   -2.1230 F   0  0  0  0  0  0  0  0  0  0  0  0
    0.7640   -3.8590   -1.8830 F   0  0  0  0  0  0  0  0  0  0  0  0
    0.2570    0.3860   -0.8700 C   0  0  0  0  0  0  0  0  0  0  0  0
   -0.2570    1.3970   -1.3370 O   0  0  0  0  0  0  0  0  0  0  0  0
    1.6680    0.3280   -1.0100 O   0  0  0  0  0  0  0  0  0  0  0  0
    2.3330    1.4020   -1.6600 C   0  0  0  0  0  0  0  0  0  0  0  0
    3.7700    1.3050   -1.2310 C   0  0  0  0  0  0  0  0  0  0  0  0
    4.3730   -0.0120   -1.5570 C   0  0  1  0  0  0  0  0  0  0  0  0
    5.7030   -0.0450   -1.1240 F   0  0  0  0  0  0  0  0  0  0  0  0
    3.6930   -0.9930   -0.8690 F   0  0  0  0  0  0  0  0  0  0  0  0
    4.3870   -0.3440   -2.8780 F   0  0  0  0  0  0  0  0  0  0  0  0
   -1.8470   -0.6200   -0.0110 C   0  0  0  0  0  0  0  0  0  0  0  0
   -2.8870   -0.4130   -0.9150 C   0  0  0  0  0  0  0  0  0  0  0  0
   -2.8880   -0.2790   -2.2130 C   0  0  0  0  0  0  0  0  0  0  0  0
   -1.8350   -0.3180   -3.0300 F   0  0  0  0  0  0  0  0  0  0  0  0
   -4.1050   -0.0570   -2.8720 F   0  0  0  0  0  0  0  0  0  0  0  0
   -2.2340   -0.7700    1.3120 C   0  0  0  0  0  0  0  0  0  0  0  0
   -3.6090   -0.6860    1.7600 C   0  0  1  0  0  0  0  0  0  0  0  0
   -3.6410   -0.9470    3.1580 F   0  0  0  0  0  0  0  0  0  0  0  0
   -4.1140    0.6070    1.6470 F   0  0  0  0  0  0  0  0  0  0  0  0
   -4.4740   -1.5760    1.1950 F   0  0  0  0  0  0  0  0  0  0  0  0
  1  2  1  0
  2  3  1  0
  3  4  2  0
  3  5  1  0
  5  6  1  0
  6  7  1  6
  6 12  1  0
  6 21  1  0
  7  8  1  0
  8  9  1  6
  8 10  1  0
  8 11  1  0
 12 13  2  0
 12 14  1  0
 14 15  1  0
 15 16  1  0
 16 17  1  0
 17 18  1  1
 17 19  1  0
 17 20  1  0
 21 22  1  0
 21 26  2  3
 22 23  2  3
 23 24  1  0
 23 25  1  0
 26 27  1  0
 27 28  1  1
 27 29  1  0
 27 30  1  0
M  END
