
     RDKit          3D

 31 31  0  0  0  0  0  0  0  0999 V2000
   -4.5750   -0.4340    0.4480 C   0  0  0  0  0  0  0  0  0  0  0  0
   -3.1060   -0.3120    0.3230 C   0  0  0  0  0  0  0  0  0  0  0  0
   -2.3000   -1.4000    0.3520 C   0  0  0  0  0  0  0  0  0  0  0  0
   -2.8410   -2.7220    0.5050 C   0  0  0  0  0  0  0  0  0  0  0  0
   -1.9790   -3.8560    0.5340 N   0  0  0  0  0  0  0  0  0  0  0  0
   -4.0680   -2.9340    0.6180 O   0  0  0  0  0  0  0  0  0  0  0  0
   -0.9210   -1.2380    0.2310 C   0  0  0  0  0  0  0  0  0  0  0  0
   -0.3440   -0.0040    0.0820 C   0  0  0  0  0  0  0  0  0  0  0  0
    0.9530    0.3070   -0.0500 O   0  0  0  0  0  0  0  0  0  0  0  0
    2.1240   -0.4180   -0.1500 C   0  0  1  0  0  0  0  0  0  0  0  0
    2.3120   -1.2920    0.9040 O   0  0  0  0  0  0  0  0  0  0  0  0
    2.2580   -1.0180   -1.5040 C   0  0  1  0  0  0  0  0  0  0  0  0
    2.3050   -0.0580   -2.5050 F   0  0  0  0  0  0  0  0  0  0  0  0
    3.3110   -1.8910   -1.5210 F   0  0  0  0  0  0  0  0  0  0  0  0
    1.1390   -1.7900   -1.8530 F   0  0  0  0  0  0  0  0  0  0  0  0
    3.2180    0.6670    0.0590 C   0  0  2  0  0  0  0  0  0  0  0  0
    2.9550    1.1760    1.3170 F   0  0  0  0  0  0  0  0  0  0  0  0
    2.9200    1.6550   -0.8560 F   0  0  0  0  0  0  0  0  0  0  0  0
    4.5990    0.1330   -0.0400 C   0  0  0  0  0  0  0  0  0  0  0  0
    5.6340    1.2490    0.1860 C   0  0  1  0  0  0  0  0  0  0  0  0
    6.9110    0.7460    0.0930 F   0  0  0  0  0  0  0  0  0  0  0  0
    5.4950    2.2570   -0.7270 F   0  0  0  0  0  0  0  0  0  0  0  0
    5.4960    1.7910    1.4410 F   0  0  0  0  0  0  0  0  0  0  0  0
   -1.2240    1.0500    0.0620 N   0  0  0  0  0  0  0  0  0  0  0  0
   -2.5340    0.9350    0.1730 C   0  0  0  0  0  0  0  0  0  0  0  0
   -3.3860    2.1770    0.1350 C   0  0  2  0  0  0  0  0  0  0  0  0
   -4.0010    2.3350    1.3380 F   0  0  0  0  0  0  0  0  0  0  0  0
   -4.2210    2.1840   -0.9530 F   0  0  0  0  0  0  0  0  0  0  0  0
   -2.4640    3.3870   -0.0380 C   0  0  1  0  0  0  0  0  0  0  0  0
   -3.2220    4.5300   -0.0750 F   0  0  0  0  0  0  0  0  0  0  0  0
   -1.5670    3.4160    1.0060 F   0  0  0  0  0  0  0  0  0  0  0  0
  1  2  1  0
  2  3  2  0
  2 25  1  0
  3  4  1  0
  3  7  1  0
  4  5  1  0
  4  6  2  0
  7  8  2  0
  8  9  1  0
  8 24  1  0
  9 10  1  0
 10 11  1  1
 10 12  1  0
 10 16  1  0
 12 13  1  6
 12 14  1  0
 12 15  1  0
 16 17  1  1
 16 18  1  0
 16 19  1  0
 19 20  1  0
 20 21  1  1
 20 22  1  0
 20 23  1  0
 24 25  2  0
 25 26  1  0
 26 27  1  1
 26 28  1  0
 26 29  1  0
 29 30  1  1
 29 31  1  0
M  END
