
     RDKit          3D

 31 30  0  0  0  0  0  0  0  0999 V2000
    3.9710   -1.3780   -1.3430 C   0  0  0  0  0  0  0  0  0  0  0  0
    3.6040   -0.1670   -0.5440 N   0  0  0  0  0  0  0  0  0  0  0  0
    2.2660   -0.1610   -0.1110 C   0  0  0  0  0  0  0  0  0  0  0  0
    1.5570   -1.1860   -0.4360 O   0  0  0  0  0  0  0  0  0  0  0  0
    1.5640    0.8650    0.6680 C   0  0  0  0  0  0  0  0  0  0  0  0
    0.2110    0.4420    0.8920 O   0  0  0  0  0  0  0  0  0  0  0  0
   -0.0070   -0.7790    1.6010 C   0  0  0  0  0  0  0  0  0  0  0  0
   -1.0630   -1.4550    1.2090 C   0  0  0  0  0  0  0  0  0  0  0  0
   -1.8830   -0.9260    0.1280 N   0  0  0  0  0  0  0  0  0  0  0  0
   -2.9260    0.0180    0.4490 C   0  0  0  0  0  0  0  0  0  0  0  0
   -3.6690    0.4640   -0.7410 C   0  0  0  0  0  0  0  0  0  0  0  0
   -3.7280    1.7090   -1.1180 C   0  0  0  0  0  0  0  0  0  0  0  0
   -3.1050    2.8780   -0.4810 C   0  0  0  0  0  0  0  0  0  0  0  0
   -4.1400    3.7590   -0.1150 F   0  0  0  0  0  0  0  0  0  0  0  0
   -4.4140   -0.5490   -1.5950 C   0  0  1  0  0  0  0  0  0  0  0  0
   -3.5670   -1.4800   -2.1140 F   0  0  0  0  0  0  0  0  0  0  0  0
   -5.3850   -1.1280   -0.7720 F   0  0  0  0  0  0  0  0  0  0  0  0
   -5.1030    0.1610   -2.5480 F   0  0  0  0  0  0  0  0  0  0  0  0
   -1.5620   -2.7330    1.7480 C   0  0  2  0  0  0  0  0  0  0  0  0
   -1.3380   -3.7010    0.7590 F   0  0  0  0  0  0  0  0  0  0  0  0
   -2.9640   -2.5630    1.8650 F   0  0  0  0  0  0  0  0  0  0  0  0
   -1.1370   -3.0930    2.9750 F   0  0  0  0  0  0  0  0  0  0  0  0
    0.9590   -1.1080    2.6500 C   0  0  1  0  0  0  0  0  0  0  0  0
    0.7720   -0.3470    3.8050 F   0  0  0  0  0  0  0  0  0  0  0  0
    1.1720   -2.4350    2.8930 F   0  0  0  0  0  0  0  0  0  0  0  0
    4.6210    0.7570   -0.3610 C   0  0  0  0  0  0  0  0  0  0  0  0
    5.7570    0.4590   -0.9340 O   0  0  0  0  0  0  0  0  0  0  0  0
    4.6510    2.0190    0.3710 C   0  0  2  0  0  0  0  0  0  0  0  0
    4.5450    1.7370    1.7410 F   0  0  0  0  0  0  0  0  0  0  0  0
    3.7790    2.9770   -0.0480 F   0  0  0  0  0  0  0  0  0  0  0  0
    5.9330    2.6060    0.2700 F   0  0  0  0  0  0  0  0  0  0  0  0
  1  2  1  0
  2  3  1  0
  2 26  1  0
  3  4  2  0
  3  5  1  0
  5  6  1  0
  6  7  1  0
  7  8  2  3
  7 23  1  0
  8  9  1  0
  8 19  1  0
  9 10  1  0
 10 11  1  0
 11 12  2  3
 11 15  1  0
 12 13  1  0
 13 14  1  0
 15 16  1  6
 15 17  1  0
 15 18  1  0
 19 20  1  6
 19 21  1  0
 19 22  1  0
 23 24  1  1
 23 25  1  0
 26 27  2  0
 26 28  1  0
 28 29  1  1
 28 30  1  0
 28 31  1  0
M  END
