
     RDKit          3D

 30 30  0  0  0  0  0  0  0  0999 V2000
   -5.8340    1.2050   -0.5320 C   0  0  0  0  0  0  0  0  0  0  0  0
   -5.2210    0.4880   -1.6080 N   0  0  0  0  0  0  0  0  0  0  0  0
   -4.1300   -0.3600   -1.2460 C   0  0  1  0  0  0  0  0  0  0  0  0
   -2.9920    0.4200   -0.8130 N   0  0  0  0  0  0  0  0  0  0  0  0
   -1.7090   -0.1540   -0.6390 C   0  0  0  0  0  0  0  0  0  0  0  0
   -1.0470   -0.1930    0.4950 C   0  0  0  0  0  0  0  0  0  0  0  0
    0.2860   -0.8140    0.5750 C   0  0  0  0  0  0  0  0  0  0  0  0
    0.8140   -1.3130   -0.4260 O   0  0  0  0  0  0  0  0  0  0  0  0
    0.9390   -0.8330    1.7690 O   0  0  0  0  0  0  0  0  0  0  0  0
    2.2030   -1.3800    2.0050 C   0  0  0  0  0  0  0  0  0  0  0  0
    3.2110   -0.6700    1.1350 C   0  0  0  0  0  0  0  0  0  0  0  0
    3.6970   -1.1040   -0.0810 C   0  0  0  0  0  0  0  0  0  0  0  0
    4.6020   -0.1470   -0.5340 C   0  0  0  0  0  0  0  0  0  0  0  0
    5.3850   -0.1660   -1.7970 C   0  0  2  0  0  0  0  0  0  0  0  0
    5.0910   -1.3160   -2.5050 F   0  0  0  0  0  0  0  0  0  0  0  0
    6.7350   -0.2580   -1.4450 F   0  0  0  0  0  0  0  0  0  0  0  0
    5.1490    0.9750   -2.5370 F   0  0  0  0  0  0  0  0  0  0  0  0
    4.6200    0.8310    0.4390 C   0  0  0  0  0  0  0  0  0  0  0  0
    5.4610    2.0780    0.3810 C   0  0  2  0  0  0  0  0  0  0  0  0
    6.3210    2.0590    1.4850 F   0  0  0  0  0  0  0  0  0  0  0  0
    4.6870    3.2090    0.5090 F   0  0  0  0  0  0  0  0  0  0  0  0
    3.7970    0.4710    1.3750 O   0  0  0  0  0  0  0  0  0  0  0  0
   -1.6400    0.3910    1.7130 C   0  0  1  0  0  0  0  0  0  0  0  0
   -2.8550    0.9730    1.5490 F   0  0  0  0  0  0  0  0  0  0  0  0
   -1.6500   -0.5960    2.6870 F   0  0  0  0  0  0  0  0  0  0  0  0
   -0.7640    1.3830    2.1410 F   0  0  0  0  0  0  0  0  0  0  0  0
   -4.4790   -1.4810   -0.3180 C   0  0  1  0  0  0  0  0  0  0  0  0
   -5.4260   -2.3090   -0.8950 F   0  0  0  0  0  0  0  0  0  0  0  0
   -3.3390   -2.2260   -0.0880 F   0  0  0  0  0  0  0  0  0  0  0  0
   -4.9440   -1.0540    0.9100 F   0  0  0  0  0  0  0  0  0  0  0  0
  1  2  1  0
  3  2  1  1
  3  4  1  0
  3 27  1  0
  4  5  1  0
  5  6  2  3
  6  7  1  0
  6 23  1  0
  7  8  2  0
  7  9  1  0
  9 10  1  0
 10 11  1  0
 11 12  2  0
 11 22  1  0
 12 13  1  0
 13 14  1  0
 13 18  2  0
 14 15  1  6
 14 16  1  0
 14 17  1  0
 18 19  1  0
 18 22  1  0
 19 20  1  1
 19 21  1  0
 23 24  1  6
 23 25  1  0
 23 26  1  0
 27 28  1  6
 27 29  1  0
 27 30  1  0
M  END
