
     RDKit          3D

 31 31  0  0  0  0  0  0  0  0999 V2000
   -1.9370   -0.6070    0.4570 O   0  0  0  0  0  0  0  0  0  0  0  0
   -2.2390    0.4170   -0.2010 C   0  0  0  0  0  0  0  0  0  0  0  0
   -1.1070    1.2470   -0.7240 C   0  0  0  0  0  0  0  0  0  0  0  0
    0.1390    0.6920   -0.3580 O   0  0  0  0  0  0  0  0  0  0  0  0
    1.2930    1.3360   -0.7630 C   0  0  0  0  0  0  0  0  0  0  0  0
    1.1740    2.3860   -1.4380 O   0  0  0  0  0  0  0  0  0  0  0  0
    2.6310    0.8080   -0.4130 C   0  0  0  0  0  0  0  0  0  0  0  0
    3.8080    1.3490   -0.7510 N   0  0  0  0  0  0  0  0  0  0  0  0
    4.7990    0.5910   -0.2550 C   0  0  0  0  0  0  0  0  0  0  0  0
    6.2690    0.8380   -0.4010 C   0  0  0  0  0  0  0  0  0  0  0  0
    6.8140   -0.0150   -1.3340 F   0  0  0  0  0  0  0  0  0  0  0  0
    4.2600   -0.4760    0.4280 C   0  0  0  0  0  0  0  0  0  0  0  0
    5.0060   -1.5400    1.1190 C   0  0  2  0  0  0  0  0  0  0  0  0
    4.7450   -2.7970    0.6100 F   0  0  0  0  0  0  0  0  0  0  0  0
    4.7480   -1.4980    2.4910 F   0  0  0  0  0  0  0  0  0  0  0  0
    2.8900   -0.3160    0.3130 C   0  0  0  0  0  0  0  0  0  0  0  0
    1.8630   -1.2130    0.8800 C   0  0  2  0  0  0  0  0  0  0  0  0
    1.0510   -0.5290    1.7570 F   0  0  0  0  0  0  0  0  0  0  0  0
    2.4720   -2.2170    1.6060 F   0  0  0  0  0  0  0  0  0  0  0  0
    1.0650   -1.7140   -0.1260 F   0  0  0  0  0  0  0  0  0  0  0  0
   -3.5800    0.7340   -0.4160 N   0  0  0  0  0  0  0  0  0  0  0  0
   -4.7050   -0.0310    0.0600 C   0  0  0  0  0  0  0  0  0  0  0  0
   -5.5380    0.5290    0.8910 C   0  0  0  0  0  0  0  0  0  0  0  0
   -6.7200   -0.1110    1.4610 C   0  0  2  0  0  0  0  0  0  0  0  0
   -7.3200    0.7260    2.4190 F   0  0  0  0  0  0  0  0  0  0  0  0
   -6.4330   -1.2740    2.1870 F   0  0  0  0  0  0  0  0  0  0  0  0
   -7.7420   -0.3320    0.5370 F   0  0  0  0  0  0  0  0  0  0  0  0
   -4.8140   -1.3960   -0.4600 C   0  0  1  0  0  0  0  0  0  0  0  0
   -4.7780   -1.3510   -1.8670 F   0  0  0  0  0  0  0  0  0  0  0  0
   -3.8180   -2.2400   -0.0270 F   0  0  0  0  0  0  0  0  0  0  0  0
   -6.0150   -2.0230   -0.1770 F   0  0  0  0  0  0  0  0  0  0  0  0
  1  2  2  0
  2  3  1  0
  2 21  1  0
  3  4  1  0
  4  5  1  0
  5  6  2  0
  5  7  1  0
  7  8  1  0
  7 16  2  0
  8  9  1  0
  9 10  1  0
  9 12  2  0
 10 11  1  0
 12 13  1  0
 12 16  1  0
 13 14  1  6
 13 15  1  0
 16 17  1  0
 17 18  1  1
 17 19  1  0
 17 20  1  0
 21 22  1  0
 22 23  2  3
 22 28  1  0
 23 24  1  0
 24 25  1  1
 24 26  1  0
 24 27  1  0
 28 29  1  6
 28 30  1  0
 28 31  1  0
M  END
