
     RDKit          3D

 31 31  0  0  0  0  0  0  0  0999 V2000
   -2.2970    2.7110   -0.3930 N   0  0  0  0  0  0  0  0  0  0  0  0
   -2.7210    1.8460    0.6860 C   0  0  1  0  0  0  0  0  0  0  0  0
   -1.7690    1.6770    1.6430 F   0  0  0  0  0  0  0  0  0  0  0  0
   -3.8140    2.4710    1.3320 F   0  0  0  0  0  0  0  0  0  0  0  0
   -3.2210    0.5880    0.0850 C   0  0  0  0  0  0  0  0  0  0  0  0
   -2.3950   -0.4160   -0.2710 C   0  0  0  0  0  0  0  0  0  0  0  0
   -1.1370   -0.3370   -0.0780 O   0  0  0  0  0  0  0  0  0  0  0  0
    0.1480   -0.4610    0.1440 C   0  0  0  0  0  0  0  0  0  0  0  0
    0.7600   -1.7000    0.4110 C   0  0  0  0  0  0  0  0  0  0  0  0
    2.1020   -1.8390    0.6320 C   0  0  0  0  0  0  0  0  0  0  0  0
    2.9460   -0.7200    0.6010 C   0  0  0  0  0  0  0  0  0  0  0  0
    4.3900   -0.9670    0.9280 C   0  0  2  0  0  0  0  0  0  0  0  0
    4.4430   -2.2330    1.6390 F   0  0  0  0  0  0  0  0  0  0  0  0
    4.8910   -0.1060    1.8380 F   0  0  0  0  0  0  0  0  0  0  0  0
    5.1520   -1.2680   -0.1640 F   0  0  0  0  0  0  0  0  0  0  0  0
    2.4150    0.4700    0.3580 N   0  0  0  0  0  0  0  0  0  0  0  0
    3.1800    1.6310    0.2060 C   0  0  0  0  0  0  0  0  0  0  0  0
    2.4670    2.7350    0.2190 O   0  0  0  0  0  0  0  0  0  0  0  0
    4.6070    1.8960    0.0270 C   0  0  1  0  0  0  0  0  0  0  0  0
    4.6290    2.9120   -1.0380 F   0  0  0  0  0  0  0  0  0  0  0  0
    5.1060    2.6490    1.1060 F   0  0  0  0  0  0  0  0  0  0  0  0
    1.0420    0.5790    0.1370 C   0  0  0  0  0  0  0  0  0  0  0  0
    0.6110    1.7670   -0.0920 O   0  0  0  0  0  0  0  0  0  0  0  0
   -3.1360   -1.5670   -0.8790 C   0  0  0  0  0  0  0  0  0  0  0  0
   -2.6260   -2.6350   -1.3840 C   0  0  0  0  0  0  0  0  0  0  0  0
   -1.3330   -2.9360   -1.4780 F   0  0  0  0  0  0  0  0  0  0  0  0
   -3.4600   -3.6250   -1.9200 F   0  0  0  0  0  0  0  0  0  0  0  0
   -4.6330   -1.5180   -0.8730 C   0  0  2  0  0  0  0  0  0  0  0  0
   -5.1060   -0.5650   -1.7590 F   0  0  0  0  0  0  0  0  0  0  0  0
   -5.1050   -1.2450    0.3970 F   0  0  0  0  0  0  0  0  0  0  0  0
   -5.1530   -2.7420   -1.3010 F   0  0  0  0  0  0  0  0  0  0  0  0
  2  1  1  6
  2  3  1  0
  2  4  1  0
  2  5  1  0
  5  6  2  3
  6  7  1  0
  6 24  1  0
  7  8  1  0
  8  9  2  0
  8 22  1  0
  9 10  1  0
 10 11  2  0
 11 12  1  0
 11 16  1  0
 12 13  1  1
 12 14  1  0
 12 15  1  0
 16 17  1  0
 16 22  1  0
 17 18  2  0
 17 19  1  0
 19 20  1  6
 19 21  1  0
 22 23  2  0
 24 25  2  3
 24 28  1  0
 25 26  1  0
 25 27  1  0
 28 29  1  6
 28 30  1  0
 28 31  1  0
M  END
