
     RDKit          3D

 30 30  0  0  0  0  0  0  0  0999 V2000
   -3.8950    1.5550    0.2800 C   0  0  0  0  0  0  0  0  0  0  0  0
   -3.8790    0.0980    0.2550 C   0  0  0  0  0  0  0  0  0  0  0  0
   -4.9270   -0.7180    0.4120 N   0  0  0  0  0  0  0  0  0  0  0  0
   -4.5380   -2.0170    0.3400 C   0  0  0  0  0  0  0  0  0  0  0  0
   -5.4500   -3.2070    0.4710 C   0  0  1  0  0  0  0  0  0  0  0  0
   -6.6050   -2.9220   -0.2920 F   0  0  0  0  0  0  0  0  0  0  0  0
   -4.8820   -4.3480   -0.0340 F   0  0  0  0  0  0  0  0  0  0  0  0
   -5.8420   -3.3780    1.7760 F   0  0  0  0  0  0  0  0  0  0  0  0
   -3.2120   -1.9840    0.1360 N   0  0  0  0  0  0  0  0  0  0  0  0
   -2.7720   -0.6990    0.0760 C   0  0  0  0  0  0  0  0  0  0  0  0
   -1.3640   -0.2890   -0.0970 C   0  0  0  0  0  0  0  0  0  0  0  0
   -0.5110   -1.1920   -0.1390 O   0  0  0  0  0  0  0  0  0  0  0  0
   -1.0140    1.0160   -0.2040 O   0  0  0  0  0  0  0  0  0  0  0  0
    0.2840    1.5600   -0.3460 C   0  0  0  0  0  0  0  0  0  0  0  0
    1.3760    0.8790   -0.1220 C   0  0  0  0  0  0  0  0  0  0  0  0
    2.7510    1.2460   -0.2060 C   0  0  0  0  0  0  0  0  0  0  0  0
    3.2030    2.4150   -0.4610 O   0  0  0  0  0  0  0  0  0  0  0  0
    3.8340    0.2010   -0.0010 C   0  0  0  0  0  0  0  0  0  0  0  0
    5.0510    0.6610    0.0320 C   0  0  0  0  0  0  0  0  0  0  0  0
    6.3390    0.0060    0.2140 C   0  0  1  0  0  0  0  0  0  0  0  0
    7.1860    0.3770   -0.8370 F   0  0  0  0  0  0  0  0  0  0  0  0
    6.9780    0.4860    1.3670 F   0  0  0  0  0  0  0  0  0  0  0  0
    6.3910   -1.3310    0.2870 F   0  0  0  0  0  0  0  0  0  0  0  0
    3.3680   -1.1870    0.0600 C   0  0  1  0  0  0  0  0  0  0  0  0
    2.4150   -1.4090   -0.9860 F   0  0  0  0  0  0  0  0  0  0  0  0
    4.3430   -2.1360   -0.2810 F   0  0  0  0  0  0  0  0  0  0  0  0
    2.7610   -1.4640    1.2360 F   0  0  0  0  0  0  0  0  0  0  0  0
    0.1940    2.9810   -0.8000 C   0  0  1  0  0  0  0  0  0  0  0  0
    1.3180    3.6630   -0.8760 F   0  0  0  0  0  0  0  0  0  0  0  0
   -0.3760    2.9890   -2.1030 F   0  0  0  0  0  0  0  0  0  0  0  0
  1  2  1  0
  2  3  1  0
  2 10  2  0
  3  4  2  0
  4  5  1  0
  4  9  1  0
  5  6  1  6
  5  7  1  0
  5  8  1  0
  9 10  1  0
 10 11  1  0
 11 12  2  0
 11 13  1  0
 13 14  1  0
 14 15  2  3
 14 28  1  0
 15 16  1  0
 16 17  2  0
 16 18  1  0
 18 19  2  3
 18 24  1  0
 19 20  1  0
 20 21  1  6
 20 22  1  0
 20 23  1  0
 24 25  1  6
 24 26  1  0
 24 27  1  0
 28 29  1  6
 28 30  1  0
M  END
