
     RDKit          3D

 30 29  0  0  0  0  0  0  0  0999 V2000
   -5.7760   -5.3480   -1.1680 N   0  0  0  0  0  0  0  0  0  0  0  0
   -5.1270   -4.3610   -1.1700 C   0  0  0  0  0  0  0  0  0  0  0  0
   -4.3220   -3.1350   -1.1870 C   0  0  0  0  0  0  0  0  0  0  0  0
   -4.5700   -2.3360   -2.2040 F   0  0  0  0  0  0  0  0  0  0  0  0
   -3.4580   -3.0240   -0.2090 C   0  0  0  0  0  0  0  0  0  0  0  0
   -2.5310   -1.8740   -0.0010 C   0  0  0  0  0  0  0  0  0  0  0  0
   -1.7020   -1.8720    1.0060 C   0  0  0  0  0  0  0  0  0  0  0  0
   -0.7330   -1.1370    1.5790 N   0  0  0  0  0  0  0  0  0  0  0  0
   -0.0390    0.0780    1.5020 C   0  0  0  0  0  0  0  0  0  0  0  0
   -0.3940    0.8990    0.6620 O   0  0  0  0  0  0  0  0  0  0  0  0
    1.1370    0.3770    2.3970 C   0  0  0  0  0  0  0  0  0  0  0  0
    1.7330    1.5770    1.9180 O   0  0  0  0  0  0  0  0  0  0  0  0
    2.3120    1.5980    0.6290 C   0  0  0  0  0  0  0  0  0  0  0  0
    2.2320    0.4990    0.0260 O   0  0  0  0  0  0  0  0  0  0  0  0
    2.9250    2.7630    0.0930 C   0  0  0  0  0  0  0  0  0  0  0  0
    3.5210    3.0170   -1.0230 C   0  0  0  0  0  0  0  0  0  0  0  0
    3.7560    2.1020   -2.1440 C   0  0  1  0  0  0  0  0  0  0  0  0
    3.3930    0.8170   -2.0320 F   0  0  0  0  0  0  0  0  0  0  0  0
    3.2400    2.7010   -3.3100 F   0  0  0  0  0  0  0  0  0  0  0  0
    4.0480    4.4280   -1.2830 C   0  0  2  0  0  0  0  0  0  0  0  0
    3.3790    4.7900   -2.4460 F   0  0  0  0  0  0  0  0  0  0  0  0
    5.3860    4.2670   -1.5590 F   0  0  0  0  0  0  0  0  0  0  0  0
   -1.9220   -3.1990    1.8550 C   0  0  1  0  0  0  0  0  0  0  0  0
   -1.4460   -4.1860    1.0480 F   0  0  0  0  0  0  0  0  0  0  0  0
   -1.0600   -3.1740    2.9530 F   0  0  0  0  0  0  0  0  0  0  0  0
   -3.1850   -3.3030    2.2500 F   0  0  0  0  0  0  0  0  0  0  0  0
   -2.7230   -0.7770   -0.9830 C   0  0  2  0  0  0  0  0  0  0  0  0
   -4.1380   -0.4970   -1.0410 F   0  0  0  0  0  0  0  0  0  0  0  0
   -2.3880   -1.2320   -2.2400 F   0  0  0  0  0  0  0  0  0  0  0  0
   -2.1340    0.4060   -0.8050 F   0  0  0  0  0  0  0  0  0  0  0  0
  1  2  3  0
  2  3  1  0
  3  4  1  0
  3  5  2  3
  5  6  1  0
  6  7  2  3
  6 27  1  0
  7  8  1  0
  7 23  1  0
  8  9  1  0
  9 10  2  0
  9 11  1  0
 11 12  1  0
 12 13  1  0
 13 14  2  0
 13 15  1  0
 15 16  2  3
 16 17  1  0
 16 20  1  0
 17 18  1  1
 17 19  1  0
 20 21  1  6
 20 22  1  0
 23 24  1  6
 23 25  1  0
 23 26  1  0
 27 28  1  6
 27 29  1  0
 27 30  1  0
M  END
