
     RDKit          3D

 24 24  0  0  0  0  0  0  0  0999 V2000
    6.8170    1.3420   -0.9350 C   0  0  0  0  0  0  0  0  0  0  0  0
    6.5190   -0.0370   -1.4660 C   0  0  0  0  0  0  0  0  0  0  0  0
    5.1460   -0.1110   -1.7970 O   0  0  0  0  0  0  0  0  0  0  0  0
    4.2370    0.1130   -0.7400 C   0  0  0  0  0  0  0  0  0  0  0  0
    4.6770    0.3580    0.4000 O   0  0  0  0  0  0  0  0  0  0  0  0
    2.7820    0.0610   -0.9730 C   0  0  0  0  0  0  0  0  0  0  0  0
    1.9330    0.2030    0.2460 C   0  0  1  0  0  0  0  0  0  0  0  0
    0.5050    0.1680   -0.1270 N   0  0  0  0  0  0  0  0  0  0  0  0
   -0.3550    1.2480    0.1550 C   0  0  0  0  0  0  0  0  0  0  0  0
    0.0530    2.2850    0.7350 O   0  0  0  0  0  0  0  0  0  0  0  0
   -1.7820    1.1810   -0.2330 C   0  0  1  0  0  0  0  0  0  0  0  0
   -2.1220    0.0130   -0.8590 O   0  0  0  0  0  0  0  0  0  0  0  0
   -3.3270   -0.4370   -0.3990 C   0  0  2  0  0  0  0  0  0  0  0  0
   -4.2380   -1.0050   -1.4550 C   0  0  0  0  0  0  0  0  0  0  0  0
   -3.5580   -2.1220   -2.0650 N   0  0  0  0  0  0  0  0  0  0  0  0
   -3.9760    0.7400    0.3420 C   0  0  2  0  0  0  0  0  0  0  0  0
   -4.9490    0.2870    1.3780 C   0  0  0  0  0  0  0  0  0  0  0  0
   -4.5600    1.6890   -0.6710 C   0  0  0  0  0  0  0  0  0  0  0  0
   -2.6990    1.3300    0.9630 C   0  0  1  0  0  0  0  0  0  0  0  0
   -2.3230    0.4180    2.0240 N   0  0  0  0  0  0  0  0  0  0  0  0
    2.0760   -0.9160    1.2180 C   0  0  0  0  0  0  0  0  0  0  0  0
    1.0920   -1.6680    1.5490 O   0  0  0  0  0  0  0  0  0  0  0  0
    3.2660   -1.2030    1.8110 O   0  0  0  0  0  0  0  0  0  0  0  0
    3.4430   -2.2510    2.7350 C   0  0  0  0  0  0  0  0  0  0  0  0
  1  2  1  0
  2  3  1  0
  3  4  1  0
  4  5  2  0
  4  6  1  0
  7  6  1  6
  7  8  1  0
  7 21  1  0
  8  9  1  0
  9 10  2  0
 11  9  1  1
 11 12  1  0
 11 19  1  0
 12 13  1  0
 13 14  1  6
 13 16  1  0
 14 15  1  0
 16 17  1  1
 16 18  1  0
 16 19  1  0
 19 20  1  1
 21 22  2  0
 21 23  1  0
 23 24  1  0
M  CHG  1  15   1
M  END
