
     RDKit          3D

 25 26  0  0  0  0  0  0  0  0999 V2000
    3.3280    1.6420    0.1000 C   0  0  0  0  0  0  0  0  0  0  0  0
    3.0720    0.1950   -0.2520 C   0  0  1  0  0  0  0  0  0  0  0  0
    4.3790   -0.4800   -0.0860 N   0  0  0  0  0  0  0  0  0  0  0  0
    2.0280   -0.4830    0.5440 C   0  0  0  0  0  0  0  0  0  0  0  0
    0.6320    0.0470    0.4960 C   0  0  1  0  0  0  0  0  0  0  0  0
    0.4990    1.4510    0.9280 C   0  0  0  0  0  0  0  0  0  0  0  0
    0.4820    1.6190    2.2070 O   0  0  0  0  0  0  0  0  0  0  0  0
    0.3890    2.6250    0.1710 N   0  0  0  0  0  0  0  0  0  0  0  0
   -0.4950    2.9550   -0.8800 C   0  0  0  0  0  0  0  0  0  0  0  0
    0.0610    3.1230   -2.0360 O   0  0  0  0  0  0  0  0  0  0  0  0
   -1.8920    3.1360   -0.8830 N   0  0  0  0  0  0  0  0  0  0  0  0
   -2.8400    2.6350    0.0330 C   0  0  0  0  0  0  0  0  0  0  0  0
   -3.5180    3.4840    0.7320 O   0  0  0  0  0  0  0  0  0  0  0  0
   -3.1920    1.2290    0.3270 C   0  0  0  0  0  0  0  0  0  0  0  0
   -2.5060    0.6770    1.4170 O   0  0  0  0  0  0  0  0  0  0  0  0
   -2.2750   -0.6710    1.6180 C   0  0  0  0  0  0  0  0  0  0  0  0
   -2.3310   -1.0690    2.8110 O   0  0  0  0  0  0  0  0  0  0  0  0
   -1.9760   -1.6750    0.6010 C   0  0  0  0  0  0  0  0  0  0  0  0
   -2.6520   -2.8310    0.6750 C   0  0  0  0  0  0  0  0  0  0  0  0
   -2.5120   -3.9740   -0.2410 C   0  0  0  0  0  0  0  0  0  0  0  0
   -1.5950   -3.7400   -1.2730 O   0  0  0  0  0  0  0  0  0  0  0  0
   -0.8900   -2.5640   -1.3610 C   0  0  0  0  0  0  0  0  0  0  0  0
   -1.0330   -1.5460   -0.4930 C   0  0  0  0  0  0  0  0  0  0  0  0
   -0.1580   -0.3370   -0.7240 C   0  0  2  0  0  0  0  0  0  0  0  0
    0.6860   -0.6150   -1.8120 O   0  0  0  0  0  0  0  0  0  0  0  0
  2  1  1  1
  2  3  1  0
  2  4  1  0
  5  4  1  6
  5  6  1  0
  5 24  1  0
  6  7  2  0
  6  8  1  0
  8  9  1  0
  9 10  2  0
  9 11  1  0
 11 12  1  0
 12 13  2  0
 12 14  1  0
 14 15  1  0
 15 16  1  0
 16 17  2  0
 16 18  1  0
 18 19  2  0
 18 23  1  0
 19 20  1  0
 20 21  1  0
 21 22  1  0
 22 23  2  0
 23 24  1  0
 24 25  1  6
M  CHG  1   3   1
M  END
