
     RDKit          3D

 25 26  0  0  0  0  0  0  0  0999 V2000
   -5.1890   -1.4260   -1.0060 C   0  0  0  0  0  0  0  0  0  0  0  0
   -4.3240   -1.2250   -0.0350 C   0  0  0  0  0  0  0  0  0  0  0  0
   -4.2490   -2.1260    1.0060 O   0  0  0  0  0  0  0  0  0  0  0  0
   -3.4540   -0.0240   -0.1010 C   0  0  2  0  0  0  0  0  0  0  0  0
   -3.7130    0.7260   -1.2360 O   0  0  0  0  0  0  0  0  0  0  0  0
   -1.9860   -0.3930   -0.1340 C   0  0  0  0  0  0  0  0  0  0  0  0
   -1.3080    0.6670    0.6070 N   0  0  0  0  0  0  0  0  0  0  0  0
    0.0680    0.7610    0.8660 C   0  0  0  0  0  0  0  0  0  0  0  0
    0.5520    1.7160    1.5160 O   0  0  0  0  0  0  0  0  0  0  0  0
    0.9750   -0.2920    0.3600 C   0  0  0  0  0  0  0  0  0  0  0  0
    2.2880    0.0010    0.7280 O   0  0  0  0  0  0  0  0  0  0  0  0
    3.3580   -0.8420    0.3720 C   0  0  0  0  0  0  0  0  0  0  0  0
    3.5430   -2.0530    1.1070 C   0  0  0  0  0  0  0  0  0  0  0  0
    4.5770   -2.9890    0.8510 N   0  0  0  0  0  0  0  0  0  0  0  0
    2.7230   -2.3090    2.0560 O   0  0  0  0  0  0  0  0  0  0  0  0
    4.1270   -0.4680   -0.6170 C   0  0  0  0  0  0  0  0  0  0  0  0
    5.3090   -1.2640   -1.1130 C   0  0  0  0  0  0  0  0  0  0  0  0
    5.8560   -0.6130   -2.2330 O   0  0  0  0  0  0  0  0  0  0  0  0
    6.2330    0.6630   -1.9050 C   0  0  0  0  0  0  0  0  0  0  0  0
    5.0290    1.5230   -1.6610 C   0  0  0  0  0  0  0  0  0  0  0  0
    3.9350    0.7180   -1.3260 O   0  0  0  0  0  0  0  0  0  0  0  0
   -2.3050    1.6530    1.0560 C   0  0  0  0  0  0  0  0  0  0  0  0
   -3.5280    0.8000    1.1580 C   0  0  1  0  0  0  0  0  0  0  0  0
   -4.8030    1.5620    1.2980 C   0  0  0  0  0  0  0  0  0  0  0  0
   -5.0700    2.4960    0.2520 N   0  0  0  0  0  0  0  0  0  0  0  0
  1  2  2  0
  2  3  1  0
  2  4  1  0
  4  5  1  6
  4  6  1  0
  4 23  1  0
  6  7  1  0
  7  8  1  0
  7 22  1  0
  8  9  2  0
  8 10  1  0
 10 11  1  0
 11 12  1  0
 12 13  1  0
 12 16  2  3
 13 14  1  0
 13 15  2  0
 16 17  1  0
 16 21  1  0
 17 18  1  0
 18 19  1  0
 19 20  1  0
 20 21  1  0
 22 23  1  0
 23 24  1  6
 24 25  1  0
M  CHG  1  25   1
M  END
