
     RDKit          3D

 25 28  0  0  0  0  0  0  0  0999 V2000
   -3.4550   -2.1410    3.1410 O   0  0  0  0  0  0  0  0  0  0  0  0
   -4.0560   -1.2710    2.4690 C   0  0  0  0  0  0  0  0  0  0  0  0
   -5.4030   -1.0650    2.6740 O   0  0  0  0  0  0  0  0  0  0  0  0
   -3.3330   -0.4950    1.4880 C   0  0  0  0  0  0  0  0  0  0  0  0
   -3.9990    0.4690    0.7430 C   0  0  0  0  0  0  0  0  0  0  0  0
   -3.2780    1.1940   -0.1870 C   0  0  0  0  0  0  0  0  0  0  0  0
   -1.9310    0.9930   -0.3970 C   0  0  0  0  0  0  0  0  0  0  0  0
   -1.2590    0.0220    0.3530 C   0  0  0  0  0  0  0  0  0  0  0  0
   -1.9900   -0.6930    1.2760 C   0  0  0  0  0  0  0  0  0  0  0  0
    0.0490   -0.1840    0.1590 N   0  0  0  0  0  0  0  0  0  0  0  0
    0.8200    0.4770   -0.7230 C   0  0  0  0  0  0  0  0  0  0  0  0
    2.1900    0.1890   -0.8910 N   0  0  0  0  0  0  0  0  0  0  0  0
    2.9140   -0.7640   -0.1390 C   0  0  0  0  0  0  0  0  0  0  0  0
    4.1260   -1.2690   -0.6270 C   0  0  0  0  0  0  0  0  0  0  0  0
    4.8880   -2.1710    0.0510 C   0  0  0  0  0  0  0  0  0  0  0  0
    4.4890   -2.6400    1.2850 C   0  0  0  0  0  0  0  0  0  0  0  0
    3.3080   -2.1570    1.7780 C   0  0  0  0  0  0  0  0  0  0  0  0
    2.7320   -2.7070    3.3450 Cl  0  0  0  0  0  0  0  0  0  0  0  0
    2.5210   -1.2260    1.0780 C   0  0  0  0  0  0  0  0  0  0  0  0
    0.1970    1.4460   -1.4860 C   0  0  0  0  0  0  0  0  0  0  0  0
    0.9290    2.1570   -2.4030 C   0  0  0  0  0  0  0  0  0  0  0  0
    0.2650    3.1150   -3.1410 C   0  0  0  0  0  0  0  0  0  0  0  0
   -1.0400    3.3490   -2.9760 N   0  0  0  0  0  0  0  0  0  0  0  0
   -1.7780    2.6510   -2.0690 C   0  0  0  0  0  0  0  0  0  0  0  0
   -1.1700    1.6910   -1.3130 C   0  0  0  0  0  0  0  0  0  0  0  0
  1  2  2  0
  2  3  1  0
  2  4  1  0
  4  5  2  0
  4  9  1  0
  5  6  1  0
  6  7  2  0
  7  8  1  0
  7 25  1  0
  8  9  2  0
  8 10  1  0
 10 11  2  0
 11 12  1  0
 11 20  1  0
 12 13  1  0
 13 14  2  0
 13 19  1  0
 14 15  1  0
 15 16  2  0
 16 17  1  0
 17 18  1  0
 17 19  2  0
 20 21  2  0
 20 25  1  0
 21 22  1  0
 22 23  2  0
 23 24  1  0
 24 25  2  0
M  END
