
     RDKit          3D

 25 25  0  0  0  0  0  0  0  0999 V2000
    1.0040   -0.0810    1.3190 C   0  0  0  0  0  0  0  0  0  0  0  0
    0.9600   -0.1550   -0.1920 C   0  0  1  0  0  0  0  0  0  0  0  0
    2.4510    0.0840   -0.5560 C   0  0  0  0  0  0  0  0  0  0  0  0
    3.1910   -1.0290    0.0960 C   0  0  0  0  0  0  0  0  0  0  0  0
    2.6010   -1.9430    0.7120 O   0  0  0  0  0  0  0  0  0  0  0  0
    4.6200   -1.1120    0.0510 N   0  0  0  0  0  0  0  0  0  0  0  0
    5.3150   -2.1820    0.6800 C   0  0  0  0  0  0  0  0  0  0  0  0
    4.6460   -3.0590    1.2780 O   0  0  0  0  0  0  0  0  0  0  0  0
    6.6990   -2.2980    0.6590 O   0  0  0  0  0  0  0  0  0  0  0  0
    0.7200   -1.4560   -0.5780 O   0  0  0  0  0  0  0  0  0  0  0  0
    0.2120   -2.1650   -1.5980 C   0  0  0  0  0  0  0  0  0  0  0  0
    0.7710   -2.3730   -2.7530 O   0  0  0  0  0  0  0  0  0  0  0  0
   -1.0580   -2.8180   -1.5590 N   0  0  0  0  0  0  0  0  0  0  0  0
   -2.2960   -2.2590   -1.0600 C   0  0  0  0  0  0  0  0  0  0  0  0
   -2.3610   -2.5600    0.4100 C   0  0  0  0  0  0  0  0  0  0  0  0
   -2.8650   -1.5510    1.1890 O   0  0  0  0  0  0  0  0  0  0  0  0
   -3.8300   -0.7770    0.5950 C   0  0  0  0  0  0  0  0  0  0  0  0
   -3.2750    0.6100    0.4030 C   0  0  0  0  0  0  0  0  0  0  0  0
   -1.7840    0.6970    0.7420 C   0  0  0  0  0  0  0  0  0  0  0  0
   -1.0860    1.4150   -0.3550 C   0  0  1  0  0  0  0  0  0  0  0  0
   -1.1960    2.8910   -0.0850 C   0  0  0  0  0  0  0  0  0  0  0  0
   -0.6040    3.3770    1.2080 C   0  0  0  0  0  0  0  0  0  0  0  0
   -0.8360    4.7820    1.1940 O   0  0  0  0  0  0  0  0  0  0  0  0
    0.1810    0.9000   -0.8880 C   0  0  1  0  0  0  0  0  0  0  0  0
    1.0400    1.9870   -1.3690 N   0  0  0  0  0  0  0  0  0  0  0  0
  2  1  1  1
  2  3  1  0
  2 10  1  0
  2 24  1  0
  3  4  1  0
  4  5  2  0
  4  6  1  0
  6  7  1  0
  7  8  2  0
  7  9  1  0
 10 11  1  0
 11 12  2  0
 11 13  1  0
 13 14  1  0
 14 15  1  0
 15 16  1  0
 16 17  1  0
 17 18  1  0
 18 19  1  0
 19 20  1  0
 20 21  1  1
 20 24  1  0
 21 22  1  0
 22 23  1  0
 24 25  1  1
M  CHG  1  25   1
M  END
