
     RDKit          3D

 25 25  0  0  0  0  0  0  0  0999 V2000
   -3.6950    1.2960    1.6080 C   0  0  0  0  0  0  0  0  0  0  0  0
   -3.8060   -0.1250    1.1810 C   0  0  1  0  0  0  0  0  0  0  0  0
   -5.2150   -0.5210    1.3360 N   0  0  0  0  0  0  0  0  0  0  0  0
   -3.3670   -0.4880   -0.1750 C   0  0  0  0  0  0  0  0  0  0  0  0
   -1.9270   -0.2550   -0.5420 C   0  0  1  0  0  0  0  0  0  0  0  0
   -1.1250   -0.9790    0.3580 O   0  0  0  0  0  0  0  0  0  0  0  0
   -1.7550   -0.9760   -1.8860 C   0  0  0  0  0  0  0  0  0  0  0  0
   -0.3310   -1.3700   -2.1670 C   0  0  0  0  0  0  0  0  0  0  0  0
    0.4370   -1.1280   -1.0690 O   0  0  0  0  0  0  0  0  0  0  0  0
    1.5310   -1.9130   -0.8850 C   0  0  0  0  0  0  0  0  0  0  0  0
    2.8400   -1.1610   -0.7000 C   0  0  2  0  0  0  0  0  0  0  0  0
    3.0320   -0.7280    0.7290 C   0  0  0  0  0  0  0  0  0  0  0  0
    4.3320   -0.0100    0.8240 C   0  0  0  0  0  0  0  0  0  0  0  0
    5.1120    0.1650   -0.1440 O   0  0  0  0  0  0  0  0  0  0  0  0
    4.7240    0.5160    2.0970 N   0  0  0  0  0  0  0  0  0  0  0  0
    5.9550    1.2100    2.2500 C   0  0  0  0  0  0  0  0  0  0  0  0
    6.7410    1.3830    1.2640 O   0  0  0  0  0  0  0  0  0  0  0  0
    3.0160   -0.1300   -1.6780 N   0  0  0  0  0  0  0  0  0  0  0  0
    2.6640    1.2170   -1.6220 C   0  0  0  0  0  0  0  0  0  0  0  0
    3.5530    2.0580   -2.0110 O   0  0  0  0  0  0  0  0  0  0  0  0
    1.3900    1.8070   -1.1720 C   0  0  0  0  0  0  0  0  0  0  0  0
    0.3850    1.7550   -2.1360 O   0  0  0  0  0  0  0  0  0  0  0  0
   -0.9660    1.5910   -1.9300 C   0  0  0  0  0  0  0  0  0  0  0  0
   -1.7630    1.8040   -2.9080 O   0  0  0  0  0  0  0  0  0  0  0  0
   -1.5830    1.1760   -0.6270 C   0  0  0  0  0  0  0  0  0  0  0  0
  2  1  1  6
  2  3  1  0
  2  4  1  0
  4  5  1  0
  5  6  1  1
  5  7  1  0
  5 25  1  0
  7  8  1  0
  8  9  1  0
  9 10  1  0
 10 11  1  0
 11 12  1  1
 11 18  1  0
 12 13  1  0
 13 14  2  0
 13 15  1  0
 15 16  1  0
 16 17  2  0
 18 19  1  0
 19 20  2  0
 19 21  1  0
 21 22  1  0
 22 23  1  0
 23 24  2  0
 23 25  1  0
M  CHG  1   3   1
M  END
