
     RDKit          3D

 43 45  0  0  0  0  0  0  0  0999 V2000
    5.9050    0.9680    3.3780 C   0  0  0  0  0  0  0  0  0  0  0  0
    6.0460    1.3060    1.9210 C   0  0  0  0  0  0  0  0  0  0  0  0
    5.1810    0.5280    1.0660 N   0  0  0  0  0  0  0  0  0  0  0  0
    5.5290   -0.7370    0.4690 C   0  0  0  0  0  0  0  0  0  0  0  0
    4.2260   -1.2660   -0.0920 C   0  0  0  0  0  0  0  0  0  0  0  0
    3.3410   -0.1250   -0.2010 N   0  0  0  0  0  0  0  0  0  0  0  0
    2.2410   -0.1040   -1.0130 O   0  0  0  0  0  0  0  0  0  0  0  0
    0.9580   -0.3740   -0.5780 C   0  0  0  0  0  0  0  0  0  0  0  0
    0.7880   -0.6560    0.6220 O   0  0  0  0  0  0  0  0  0  0  0  0
   -0.1790   -0.3300   -1.5030 N   0  0  0  0  0  0  0  0  0  0  0  0
    0.1210   -0.0080   -2.8650 C   0  0  0  0  0  0  0  0  0  0  0  0
   -0.7900   -0.6300   -3.8480 C   0  0  0  0  0  0  0  0  0  0  0  0
   -2.1530   -0.3660   -3.4410 N   0  0  0  0  0  0  0  0  0  0  0  0
   -2.4910   -0.6720   -2.0920 C   0  0  0  0  0  0  0  0  0  0  0  0
   -3.6610   -1.0120   -1.8390 O   0  0  0  0  0  0  0  0  0  0  0  0
   -1.4940   -0.5980   -0.9990 C   0  0  1  0  0  0  0  0  0  0  0  0
   -1.5370   -1.9860   -0.3660 C   0  0  0  0  0  0  0  0  0  0  0  0
   -2.5370   -2.2620    0.3300 O   0  0  0  0  0  0  0  0  0  0  0  0
   -0.5380   -2.9310   -0.5300 N   0  0  0  0  0  0  0  0  0  0  0  0
   -0.4350   -4.2370   -0.0180 C   0  0  0  0  0  0  0  0  0  0  0  0
    0.7110   -5.0010   -0.1830 C   0  0  0  0  0  0  0  0  0  0  0  0
    0.7920   -6.2750    0.3110 C   0  0  0  0  0  0  0  0  0  0  0  0
   -0.2590   -6.8460    0.9900 C   0  0  0  0  0  0  0  0  0  0  0  0
   -1.4110   -6.1280    1.1760 C   0  0  0  0  0  0  0  0  0  0  0  0
   -1.4710   -4.8200    0.6590 C   0  0  0  0  0  0  0  0  0  0  0  0
   -1.8920    0.4310   -0.0050 C   0  0  2  0  0  0  0  0  0  0  0  0
   -3.2310    0.2140    0.6020 C   0  0  0  0  0  0  0  0  0  0  0  0
   -3.2730   -0.2280    1.8000 O   0  0  0  0  0  0  0  0  0  0  0  0
   -4.4380    0.4440   -0.0060 O   0  0  0  0  0  0  0  0  0  0  0  0
   -5.6910    0.2180    0.6220 C   0  0  0  0  0  0  0  0  0  0  0  0
   -2.0200    1.7490   -0.7030 C   0  0  0  0  0  0  0  0  0  0  0  0
   -1.9740    1.8050   -1.9300 O   0  0  0  0  0  0  0  0  0  0  0  0
   -2.1930    2.8910    0.0480 O   0  0  0  0  0  0  0  0  0  0  0  0
   -2.3250    4.1500   -0.4890 C   0  0  0  0  0  0  0  0  0  0  0  0
   -2.2880    4.2700   -1.7400 O   0  0  0  0  0  0  0  0  0  0  0  0
   -2.5060    5.3580    0.3100 C   0  0  0  0  0  0  0  0  0  0  0  0
   -2.5470    5.3180    1.5740 O   0  0  0  0  0  0  0  0  0  0  0  0
   -2.6470    6.6390   -0.2920 N   0  0  0  0  0  0  0  0  0  0  0  0
   -2.8260    7.8300    0.4250 C   0  0  0  0  0  0  0  0  0  0  0  0
   -2.8680    7.8060    1.6840 O   0  0  0  0  0  0  0  0  0  0  0  0
   -2.9650    9.0800   -0.1840 O   0  0  0  0  0  0  0  0  0  0  0  0
    3.8770    0.8590    0.6730 C   0  0  0  0  0  0  0  0  0  0  0  0
    3.2340    1.8900    1.0320 O   0  0  0  0  0  0  0  0  0  0  0  0
  1  2  1  0
  2  3  1  0
  3  4  1  0
  3 42  1  0
  4  5  1  0
  5  6  1  0
  6  7  1  0
  6 42  1  0
  7  8  1  0
  8  9  2  0
  8 10  1  0
 10 11  1  0
 10 16  1  0
 11 12  1  0
 12 13  1  0
 13 14  1  0
 14 15  2  0
 14 16  1  0
 16 17  1  1
 16 26  1  0
 17 18  2  0
 17 19  1  0
 19 20  1  0
 20 21  2  0
 20 25  1  0
 21 22  1  0
 22 23  2  0
 23 24  1  0
 24 25  2  0
 26 27  1  6
 26 31  1  0
 27 28  2  0
 27 29  1  0
 29 30  1  0
 31 32  2  0
 31 33  1  0
 33 34  1  0
 34 35  2  0
 34 36  1  0
 36 37  2  0
 36 38  1  0
 38 39  1  0
 39 40  2  0
 39 41  1  0
 42 43  2  0
M  END
