
     RDKit          3D

 43 47  0  0  0  0  0  0  0  0999 V2000
   -6.1490   -2.4330    0.4390 O   0  0  0  0  0  0  0  0  0  0  0  0
   -5.7300   -2.6560   -0.7780 C   0  0  0  0  0  0  0  0  0  0  0  0
   -5.0680   -1.5740   -1.4600 C   0  0  0  0  0  0  0  0  0  0  0  0
   -5.3760   -0.2210   -0.7190 C   0  0  1  0  0  0  0  0  0  0  0  0
   -4.5200    0.7330   -1.3480 O   0  0  0  0  0  0  0  0  0  0  0  0
   -3.2480    0.9940   -0.7290 C   0  0  0  0  0  0  0  0  0  0  0  0
   -2.1430    0.7230   -1.4890 C   0  0  0  0  0  0  0  0  0  0  0  0
   -0.8430    0.8660   -1.0200 C   0  0  0  0  0  0  0  0  0  0  0  0
   -0.7030    1.3030    0.3140 C   0  0  0  0  0  0  0  0  0  0  0  0
    0.5400    1.2160    0.9830 N   0  0  0  0  0  0  0  0  0  0  0  0
    1.3830    0.0740    0.6200 C   0  0  0  0  0  0  0  0  0  0  0  0
    1.1870   -0.7350   -0.2150 O   0  0  0  0  0  0  0  0  0  0  0  0
    2.5650    0.0400    1.5400 N   0  0  0  0  0  0  0  0  0  0  0  0
    3.8040   -0.5520    0.4920 C   0  0  0  0  0  0  0  0  0  0  0  0
    3.4150   -0.9550   -0.5190 O   0  0  0  0  0  0  0  0  0  0  0  0
    5.1080   -0.3450    1.1720 C   0  0  0  0  0  0  0  0  0  0  0  0
    5.3040    0.4620    2.2970 C   0  0  0  0  0  0  0  0  0  0  0  0
    6.6230    0.5450    2.4230 N   0  0  0  0  0  0  0  0  0  0  0  0
    7.2490   -0.1130    1.5190 N   0  0  0  0  0  0  0  0  0  0  0  0
    8.4810   -0.4840    1.0360 C   0  0  0  0  0  0  0  0  0  0  0  0
    8.2530   -1.2980   -0.0990 C   0  0  0  0  0  0  0  0  0  0  0  0
    9.3890   -1.9210   -0.8780 C   0  0  2  0  0  0  0  0  0  0  0  0
   10.6080   -2.0220    0.0630 C   0  0  0  0  0  0  0  0  0  0  0  0
   11.4220   -0.9580   -0.3940 O   0  0  0  0  0  0  0  0  0  0  0  0
   10.8130   -0.3850   -1.4450 C   0  0  0  0  0  0  0  0  0  0  0  0
    9.8430   -1.2330   -1.9300 O   0  0  0  0  0  0  0  0  0  0  0  0
    6.9710   -1.3990   -0.2440 O   0  0  0  0  0  0  0  0  0  0  0  0
    6.3410   -0.6870    0.7140 C   0  0  0  0  0  0  0  0  0  0  0  0
   -1.8450    1.5600    0.9960 C   0  0  0  0  0  0  0  0  0  0  0  0
   -3.1120    1.4390    0.5310 C   0  0  0  0  0  0  0  0  0  0  0  0
   -4.2120    2.0260    1.3380 C   0  0  0  0  0  0  0  0  0  0  0  0
   -4.3970    3.3800    0.9970 O   0  0  0  0  0  0  0  0  0  0  0  0
   -4.6450    3.6650   -0.3110 C   0  0  0  0  0  0  0  0  0  0  0  0
   -6.0880    3.4530   -0.7270 C   0  0  0  0  0  0  0  0  0  0  0  0
   -6.7570    2.9000    0.3560 O   0  0  0  0  0  0  0  0  0  0  0  0
   -7.7160    1.9270    0.3600 C   0  0  0  0  0  0  0  0  0  0  0  0
   -8.6780    2.1270    1.2040 O   0  0  0  0  0  0  0  0  0  0  0  0
   -7.7510    0.7660   -0.4370 N   0  0  0  0  0  0  0  0  0  0  0  0
   -6.7520    0.1970   -1.2100 C   0  0  0  0  0  0  0  0  0  0  0  0
   -6.9520   -0.0480   -2.4630 O   0  0  0  0  0  0  0  0  0  0  0  0
   -5.9500   -3.9420   -1.2870 N   0  0  0  0  0  0  0  0  0  0  0  0
   -6.4980   -4.9830   -0.6450 O   0  0  0  0  0  0  0  0  0  0  0  0
   -5.6930   -5.2520    0.3300 O   0  0  0  0  0  0  0  0  0  0  0  0
  1  2  2  0
  2  3  1  0
  2 41  1  0
  4  3  1  6
  4  5  1  0
  4 39  1  0
  5  6  1  0
  6  7  2  0
  6 30  1  0
  7  8  1  0
  8  9  2  0
  9 10  1  0
  9 29  1  0
 10 11  1  0
 11 12  2  0
 11 13  1  0
 13 14  1  0
 14 15  2  0
 14 16  1  0
 16 17  1  0
 16 28  2  0
 17 18  2  0
 18 19  1  0
 19 20  1  0
 19 28  1  0
 20 21  2  0
 22 21  1  1
 21 27  1  0
 22 23  1  0
 22 26  1  0
 23 24  1  0
 24 25  1  0
 25 26  1  0
 27 28  1  0
 29 30  2  0
 30 31  1  0
 31 32  1  0
 32 33  1  0
 33 34  1  0
 34 35  1  0
 35 36  1  0
 36 37  2  0
 36 38  1  0
 38 39  1  0
 39 40  2  0
 41 42  1  0
 42 43  1  0
M  END
