
     RDKit          3D

 43 45  0  0  0  0  0  0  0  0999 V2000
   -0.9080   -2.0960    0.0830 C   0  0  0  0  0  0  0  0  0  0  0  0
   -0.8430   -1.7270    1.5470 C   0  0  1  0  0  0  0  0  0  0  0  0
   -2.1780   -2.0120    2.2450 C   0  0  0  0  0  0  0  0  0  0  0  0
   -3.3560   -2.0370    1.3980 C   0  0  0  0  0  0  0  0  0  0  0  0
   -3.7800   -0.7660    0.7790 N   0  0  0  0  0  0  0  0  0  0  0  0
   -5.2380   -0.8720    0.5480 C   0  0  0  0  0  0  0  0  0  0  0  0
   -5.4400   -1.9580   -0.4100 C   0  0  0  0  0  0  0  0  0  0  0  0
   -6.9550   -2.3670   -0.4950 C   0  0  0  0  0  0  0  0  0  0  0  0
   -6.8110   -3.5280   -1.2090 O   0  0  0  0  0  0  0  0  0  0  0  0
   -7.4730   -3.6390   -2.3220 O   0  0  0  0  0  0  0  0  0  0  0  0
   -3.0220    0.2870    0.3010 C   0  0  0  0  0  0  0  0  0  0  0  0
   -3.5740    1.1370   -0.4280 O   0  0  0  0  0  0  0  0  0  0  0  0
   -1.5690    0.5260    0.5830 N   0  0  0  0  0  0  0  0  0  0  0  0
   -1.1670    1.5540   -0.3520 C   0  0  0  0  0  0  0  0  0  0  0  0
   -1.4070    2.9430    0.1670 C   0  0  2  0  0  0  0  0  0  0  0  0
   -1.3120    3.8770   -0.9330 N   0  0  0  0  0  0  0  0  0  0  0  0
   -2.3340    4.8430   -1.1570 C   0  0  0  0  0  0  0  0  0  0  0  0
   -3.3910    4.9080   -0.4440 O   0  0  0  0  0  0  0  0  0  0  0  0
   -2.1330    5.7270   -2.2080 O   0  0  0  0  0  0  0  0  0  0  0  0
   -0.5010    3.3380    1.3120 C   0  0  0  0  0  0  0  0  0  0  0  0
    0.9060    2.9920    1.1500 C   0  0  0  0  0  0  0  0  0  0  0  0
    1.7750    3.8730    0.3200 C   0  0  0  0  0  0  0  0  0  0  0  0
    3.0990    3.3490    0.3630 O   0  0  0  0  0  0  0  0  0  0  0  0
    3.2050    2.2480   -0.5120 C   0  0  0  0  0  0  0  0  0  0  0  0
    4.6950    2.0320   -0.7100 C   0  0  0  0  0  0  0  0  0  0  0  0
    4.9920    1.1830   -1.8320 N   0  0  0  0  0  0  0  0  0  0  0  0
    5.5700   -0.1140   -1.7940 C   0  0  0  0  0  0  0  0  0  0  0  0
    6.5860   -0.3500   -2.4800 O   0  0  0  0  0  0  0  0  0  0  0  0
    5.0110   -1.2170   -0.9600 C   0  0  0  0  0  0  0  0  0  0  0  0
    3.8380   -1.0840   -0.4370 O   0  0  0  0  0  0  0  0  0  0  0  0
    3.4260   -2.1050    0.2900 N   0  0  0  0  0  0  0  0  0  0  0  0
    4.4610   -2.9860    0.2260 C   0  0  0  0  0  0  0  0  0  0  0  0
    4.4600   -4.1010    0.7990 O   0  0  0  0  0  0  0  0  0  0  0  0
    5.4750   -2.4480   -0.5640 C   0  0  0  0  0  0  0  0  0  0  0  0
    6.6600   -3.0880   -1.0400 N   0  0  0  0  0  0  0  0  0  0  0  0
    7.9740   -2.6860   -0.8560 C   0  0  0  0  0  0  0  0  0  0  0  0
    8.2080   -1.6650   -0.2090 O   0  0  0  0  0  0  0  0  0  0  0  0
    2.0870   -2.0080    0.7290 C   0  0  0  0  0  0  0  0  0  0  0  0
    1.4840   -2.6450    1.8280 C   0  0  0  0  0  0  0  0  0  0  0  0
    1.9980   -3.5870    2.4910 O   0  0  0  0  0  0  0  0  0  0  0  0
    0.1900   -2.2260    2.2750 O   0  0  0  0  0  0  0  0  0  0  0  0
   -0.8510   -0.1900    1.5420 C   0  0  0  0  0  0  0  0  0  0  0  0
   -0.1460    0.2180    2.4920 O   0  0  0  0  0  0  0  0  0  0  0  0
  2  1  1  6
  2  3  1  0
  2 41  1  0
  2 42  1  0
  3  4  1  0
  4  5  1  0
  5  6  1  0
  5 11  1  0
  6  7  1  0
  7  8  1  0
  8  9  1  0
  9 10  1  0
 11 12  2  0
 11 13  1  0
 13 14  1  0
 13 42  1  0
 14 15  1  0
 15 16  1  6
 15 20  1  0
 16 17  1  0
 17 18  2  0
 17 19  1  0
 20 21  1  0
 21 22  1  0
 22 23  1  0
 23 24  1  0
 24 25  1  0
 25 26  1  0
 26 27  1  0
 27 28  2  0
 27 29  1  0
 29 30  1  0
 29 34  2  0
 30 31  1  0
 31 32  1  0
 31 38  1  0
 32 33  2  0
 32 34  1  0
 34 35  1  0
 35 36  1  0
 36 37  2  0
 38 39  1  0
 39 40  2  0
 39 41  1  0
 42 43  2  0
M  END
