
     RDKit          3D

 44 48  0  0  0  0  0  0  0  0999 V2000
    2.3300    1.4610    1.6800 C   0  0  0  0  0  0  0  0  0  0  0  0
    2.5970    0.4850    0.5840 C   0  0  1  0  0  0  0  0  0  0  0  0
    4.0330   -0.0590    0.7820 C   0  0  0  0  0  0  0  0  0  0  0  0
    4.8880    1.0470    0.6130 O   0  0  0  0  0  0  0  0  0  0  0  0
    6.2540    0.8530    0.7360 C   0  0  0  0  0  0  0  0  0  0  0  0
    6.6840   -0.3020    0.9940 O   0  0  0  0  0  0  0  0  0  0  0  0
    7.1060    1.9450    0.5700 O   0  0  0  0  0  0  0  0  0  0  0  0
    1.6990   -0.7240    0.7870 C   0  0  0  0  0  0  0  0  0  0  0  0
    1.9880   -1.7900   -0.2240 C   0  0  0  0  0  0  0  0  0  0  0  0
    0.8920   -2.7080   -0.2990 N   0  0  0  0  0  0  0  0  0  0  0  0
    0.8100   -3.7200    0.6970 C   0  0  0  0  0  0  0  0  0  0  0  0
    1.7240   -3.7290    1.5900 O   0  0  0  0  0  0  0  0  0  0  0  0
   -0.1530   -4.6880    0.7940 O   0  0  0  0  0  0  0  0  0  0  0  0
   -0.0960   -2.7170   -1.3010 C   0  0  2  0  0  0  0  0  0  0  0  0
    0.0680   -1.8700   -2.5280 C   0  0  0  0  0  0  0  0  0  0  0  0
    0.3460   -0.4490   -2.4250 C   0  0  0  0  0  0  0  0  0  0  0  0
   -0.3590    0.3340   -3.3920 O   0  0  0  0  0  0  0  0  0  0  0  0
   -0.8350    1.6190   -3.1450 C   0  0  0  0  0  0  0  0  0  0  0  0
   -0.9050    2.3150   -4.2280 O   0  0  0  0  0  0  0  0  0  0  0  0
   -1.2450    2.2510   -1.8970 C   0  0  0  0  0  0  0  0  0  0  0  0
   -0.4790    2.6530   -0.9070 C   0  0  0  0  0  0  0  0  0  0  0  0
    0.9270    2.8840   -0.8680 N   0  0  0  0  0  0  0  0  0  0  0  0
    2.0400    2.1460   -1.2350 C   0  0  0  0  0  0  0  0  0  0  0  0
    2.6860    2.6430   -2.2820 O   0  0  0  0  0  0  0  0  0  0  0  0
    2.5690    0.9940   -0.6880 O   0  0  0  0  0  0  0  0  0  0  0  0
   -1.3990    2.9910    0.2520 C   0  0  2  0  0  0  0  0  0  0  0  0
   -1.2830    1.9700    1.3250 C   0  0  0  0  0  0  0  0  0  0  0  0
   -0.6820    2.4280    2.3600 O   0  0  0  0  0  0  0  0  0  0  0  0
   -1.7400    0.7610    1.2120 O   0  0  0  0  0  0  0  0  0  0  0  0
   -2.6460   -0.1980    1.4940 C   0  0  1  0  0  0  0  0  0  0  0  0
   -3.0510   -0.2680    3.0070 C   0  0  0  0  0  0  0  0  0  0  0  0
   -3.9960   -0.1030    0.8300 C   0  0  0  0  0  0  0  0  0  0  0  0
   -4.4760   -1.4350    0.5610 O   0  0  0  0  0  0  0  0  0  0  0  0
   -3.6760   -2.1490   -0.3190 C   0  0  0  0  0  0  0  0  0  0  0  0
   -4.0950   -2.7360   -1.3610 O   0  0  0  0  0  0  0  0  0  0  0  0
   -2.2240   -2.2050    0.0310 N   0  0  0  0  0  0  0  0  0  0  0  0
   -1.5080   -2.9710   -0.9320 C   0  0  0  0  0  0  0  0  0  0  0  0
   -1.9540   -1.5270    1.1860 C   0  0  0  0  0  0  0  0  0  0  0  0
   -1.1740   -1.7700    2.1850 O   0  0  0  0  0  0  0  0  0  0  0  0
   -2.6720    3.0590   -0.3460 N   0  0  0  0  0  0  0  0  0  0  0  0
   -3.9400    3.4250   -0.0240 C   0  0  0  0  0  0  0  0  0  0  0  0
   -4.7130    3.0950   -1.0560 N   0  0  0  0  0  0  0  0  0  0  0  0
   -3.9710    2.5540   -1.9780 N   0  0  0  0  0  0  0  0  0  0  0  0
   -2.6980    2.5270   -1.5550 C   0  0  0  0  0  0  0  0  0  0  0  0
  2  1  1  1
  2  3  1  0
  2  8  1  0
  2 25  1  0
  3  4  1  0
  4  5  1  0
  5  6  2  0
  5  7  1  0
  8  9  1  0
  9 10  1  0
 10 11  1  0
 10 14  1  0
 11 12  2  0
 11 13  1  0
 14 15  1  0
 14 37  1  1
 15 16  1  0
 16 17  1  0
 17 18  1  0
 18 19  2  0
 18 20  1  0
 20 21  2  0
 20 44  1  0
 21 22  1  0
 21 26  1  0
 22 23  1  0
 23 24  2  0
 23 25  1  0
 26 27  1  0
 26 40  1  6
 27 28  2  0
 27 29  1  0
 29 30  1  0
 30 31  1  1
 30 32  1  0
 30 38  1  0
 32 33  1  0
 33 34  1  0
 34 35  2  0
 34 36  1  0
 36 37  1  0
 36 38  1  0
 38 39  2  0
 40 41  1  0
 40 44  1  0
 41 42  2  0
 42 43  1  0
 43 44  2  0
M  END
