
     RDKit          3D

 43 46  0  0  0  0  0  0  0  0999 V2000
    1.4710    6.0850    1.8960 C   0  0  0  0  0  0  0  0  0  0  0  0
    0.5250    4.9850    1.5310 C   0  0  0  0  0  0  0  0  0  0  0  0
    1.1960    3.8120    1.1060 O   0  0  0  0  0  0  0  0  0  0  0  0
    0.4630    2.6640    0.7330 C   0  0  0  0  0  0  0  0  0  0  0  0
   -0.7720    2.7440    0.8050 O   0  0  0  0  0  0  0  0  0  0  0  0
    1.0430    1.5220    0.3180 O   0  0  0  0  0  0  0  0  0  0  0  0
    0.5540    0.3210   -0.1000 C   0  0  0  0  0  0  0  0  0  0  0  0
   -0.0790    0.2460   -1.4180 C   0  0  1  0  0  0  0  0  0  0  0  0
    0.8890    0.5230   -2.5770 C   0  0  0  0  0  0  0  0  0  0  0  0
    2.0320   -0.4100   -2.6460 C   0  0  0  0  0  0  0  0  0  0  0  0
    2.9490   -0.3750   -1.6210 O   0  0  0  0  0  0  0  0  0  0  0  0
    3.6640    0.8230   -1.6080 C   0  0  0  0  0  0  0  0  0  0  0  0
    4.6770    0.9430   -0.5250 C   0  0  0  0  0  0  0  0  0  0  0  0
    5.6730   -0.0510   -0.5590 O   0  0  0  0  0  0  0  0  0  0  0  0
    6.7270   -0.0080    0.3790 C   0  0  0  0  0  0  0  0  0  0  0  0
    6.7520    0.9200    1.2100 O   0  0  0  0  0  0  0  0  0  0  0  0
    7.7330   -0.9970    0.3730 N   0  0  0  0  0  0  0  0  0  0  0  0
    8.8470   -1.0150    1.2910 C   0  0  0  0  0  0  0  0  0  0  0  0
    8.4360   -1.0790    2.7440 C   0  0  0  0  0  0  0  0  0  0  0  0
    7.6900   -2.2490    2.9500 O   0  0  0  0  0  0  0  0  0  0  0  0
   -0.6550   -1.1700   -1.6580 C   0  0  0  0  0  0  0  0  0  0  0  0
   -2.1140   -1.0240   -1.5240 N   0  0  0  0  0  0  0  0  0  0  0  0
   -2.9910   -2.0150   -1.1050 C   0  0  0  0  0  0  0  0  0  0  0  0
   -2.3190   -3.1800   -0.9810 O   0  0  0  0  0  0  0  0  0  0  0  0
   -4.3360   -2.0700   -0.8050 N   0  0  0  0  0  0  0  0  0  0  0  0
   -4.9400   -3.4270   -0.6560 C   0  0  0  0  0  0  0  0  0  0  0  0
   -6.0050   -3.4010   -1.7710 C   0  0  0  0  0  0  0  0  0  0  0  0
   -6.8470   -2.3280   -1.6950 O   0  0  0  0  0  0  0  0  0  0  0  0
   -6.2190   -1.0700   -1.7560 C   0  0  0  0  0  0  0  0  0  0  0  0
   -5.2840   -1.0600   -0.5420 C   0  0  1  0  0  0  0  0  0  0  0  0
   -6.2620   -1.5640    0.5960 C   0  0  0  0  0  0  0  0  0  0  0  0
   -5.5740   -1.8900    1.7570 O   0  0  0  0  0  0  0  0  0  0  0  0
   -4.5230   -1.3740    2.4810 C   0  0  0  0  0  0  0  0  0  0  0  0
   -3.9910   -1.7830    3.6880 C   0  0  0  0  0  0  0  0  0  0  0  0
   -2.9900   -1.0060    4.0230 O   0  0  0  0  0  0  0  0  0  0  0  0
   -2.8300   -0.0930    3.0900 N   0  0  0  0  0  0  0  0  0  0  0  0
   -3.7390   -0.2700    2.1220 C   0  0  0  0  0  0  0  0  0  0  0  0
   -3.8960    0.5260    0.9220 N   0  0  0  0  0  0  0  0  0  0  0  0
   -4.8330    0.2640   -0.1370 C   0  0  0  0  0  0  0  0  0  0  0  0
   -5.2640    1.2710   -0.7150 O   0  0  0  0  0  0  0  0  0  0  0  0
   -2.3070    0.2750   -2.0500 C   0  0  0  0  0  0  0  0  0  0  0  0
   -3.2770    0.6640   -2.7760 O   0  0  0  0  0  0  0  0  0  0  0  0
   -1.1930    1.0920   -1.6220 N   0  0  0  0  0  0  0  0  0  0  0  0
  1  2  1  0
  2  3  1  0
  3  4  1  0
  4  5  2  0
  4  6  1  0
  6  7  1  0
  8  7  1  1
  8  9  1  0
  8 21  1  0
  8 43  1  0
  9 10  1  0
 10 11  1  0
 11 12  1  0
 12 13  1  0
 13 14  1  0
 14 15  1  0
 15 16  2  0
 15 17  1  0
 17 18  1  0
 18 19  1  0
 19 20  1  0
 21 22  1  0
 22 23  1  0
 22 41  1  0
 23 24  2  0
 23 25  1  0
 25 26  1  0
 25 30  1  0
 26 27  1  0
 27 28  1  0
 28 29  1  0
 30 29  1  6
 30 31  1  0
 30 39  1  0
 31 32  1  0
 32 33  1  0
 33 34  2  0
 33 37  1  0
 34 35  1  0
 35 36  1  0
 36 37  2  0
 37 38  1  0
 38 39  1  0
 39 40  2  0
 41 42  2  0
 41 43  1  0
M  END
