
     RDKit          3D

 21 24  0  0  0  0  0  0  0  0999 V2000
   -1.1750    0.1910   -2.5120 C   0  0  0  0  0  0  0  0  0  0  0  0
   -1.1480    1.2510   -1.4560 C   0  0  1  0  0  0  0  0  0  0  0  0
   -2.4420    1.3470   -0.7240 C   0  0  0  0  0  0  0  0  0  0  0  0
   -2.4280    0.6840    0.5620 N   0  0  1  0  0  0  0  0  0  0  0  0
   -3.7430    0.4020    1.0570 C   0  0  2  0  0  0  0  0  0  0  0  0
   -4.7920   -0.2110    0.2160 C   0  0  0  0  0  0  0  0  0  0  0  0
   -4.8400    1.2750    0.5380 C   0  0  0  0  0  0  0  0  0  0  0  0
   -1.5690   -0.4940    0.5490 C   0  0  0  0  0  0  0  0  0  0  0  0
   -0.1440    0.0150    0.4870 C   0  0  1  0  0  0  0  0  0  0  0  0
    0.2190    0.4800    1.8840 C   0  0  0  0  0  0  0  0  0  0  0  0
    1.3390   -0.2350    2.2880 O   0  0  0  0  0  0  0  0  0  0  0  0
    2.0060   -0.6210    1.1320 C   0  0  1  0  0  0  0  0  0  0  0  0
    2.8910   -1.8040    1.3300 C   0  0  0  0  0  0  0  0  0  0  0  0
    3.5920   -2.1630    0.0430 C   0  0  0  0  0  0  0  0  0  0  0  0
    4.4540   -1.0640   -0.4630 C   0  0  0  0  0  0  0  0  0  0  0  0
    4.0570   -0.0680   -1.3250 C   0  0  0  0  0  0  0  0  0  0  0  0
    5.1700    0.7230   -1.5200 C   0  0  0  0  0  0  0  0  0  0  0  0
    6.1320    0.2120   -0.8200 O   0  0  0  0  0  0  0  0  0  0  0  0
    5.7530   -0.8360   -0.1860 N   0  0  0  0  0  0  0  0  0  0  0  0
    0.8440   -1.0790    0.2340 C   0  0  0  0  0  0  0  0  0  0  0  0
    0.0050    1.1230   -0.5020 C   0  0  0  0  0  0  0  0  0  0  0  0
  2  1  1  6
  2  3  1  0
  2 21  1  0
  4  3  1  6
  4  5  1  0
  4  8  1  0
  5  6  1  6
  5  7  1  0
  6  7  1  0
  9  8  1  1
  9 10  1  0
  9 20  1  0
  9 21  1  0
 10 11  1  0
 11 12  1  0
 12 13  1  1
 12 20  1  0
 13 14  1  0
 14 15  1  0
 15 16  1  0
 15 19  2  0
 16 17  2  0
 17 18  1  0
 18 19  1  0
M  CHG  1   4   1
M  END
