
     RDKit          3D

 21 23  0  0  0  0  0  0  0  0999 V2000
    0.7640   -2.5910   -0.2490 C   0  0  0  0  0  0  0  0  0  0  0  0
    0.6780   -1.1610    0.3300 C   0  0  2  0  0  0  0  0  0  0  0  0
    0.3230   -0.2960   -0.7290 N   0  0  0  0  0  0  0  0  0  0  0  0
   -1.0120    0.2600   -0.6140 C   0  0  2  0  0  0  0  0  0  0  0  0
   -1.2710    1.0420    0.6230 C   0  0  0  0  0  0  0  0  0  0  0  0
   -2.7860    1.2760    0.5010 C   0  0  1  0  0  0  0  0  0  0  0  0
   -3.4060    1.6460    1.8020 C   0  0  0  0  0  0  0  0  0  0  0  0
   -2.9900    2.2660   -0.5980 C   0  0  0  0  0  0  0  0  0  0  0  0
   -3.2020   -0.1190    0.0850 C   0  0  0  0  0  0  0  0  0  0  0  0
   -4.2100   -0.9740    0.1210 C   0  0  0  0  0  0  0  0  0  0  0  0
   -3.8150   -2.2300   -0.5510 C   0  0  0  0  0  0  0  0  0  0  0  0
   -2.4320   -1.9610   -0.9850 C   0  0  0  0  0  0  0  0  0  0  0  0
   -2.0960   -0.7460   -0.6070 C   0  0  0  0  0  0  0  0  0  0  0  0
    2.0160   -0.8860    0.8810 C   0  0  0  0  0  0  0  0  0  0  0  0
    2.1470   -1.1200    2.1650 O   0  0  0  0  0  0  0  0  0  0  0  0
    3.1420   -0.4150    0.1980 N   0  0  0  0  0  0  0  0  0  0  0  0
    3.3360   -0.1310   -1.1870 C   0  0  0  0  0  0  0  0  0  0  0  0
    3.6340    1.3570   -1.3160 C   0  0  0  0  0  0  0  0  0  0  0  0
    4.7880    1.5770   -0.5540 O   0  0  0  0  0  0  0  0  0  0  0  0
    4.6070    1.3520    0.7950 C   0  0  0  0  0  0  0  0  0  0  0  0
    4.3540   -0.1450    1.0270 C   0  0  0  0  0  0  0  0  0  0  0  0
  2  1  1  6
  2  3  1  0
  2 14  1  0
  4  3  1  1
  4  5  1  0
  4 13  1  0
  5  6  1  0
  6  7  1  1
  6  8  1  0
  6  9  1  0
  9 10  2  0
  9 13  1  0
 10 11  1  0
 11 12  1  0
 12 13  2  0
 14 15  2  0
 14 16  1  0
 16 17  1  0
 16 21  1  0
 17 18  1  0
 18 19  1  0
 19 20  1  0
 20 21  1  0
M  CHG  1   3   1
M  END
