
     RDKit          3D

 21 22  0  0  0  0  0  0  0  0999 V2000
   -0.5610    3.6910   -0.5260 C   0  0  0  0  0  0  0  0  0  0  0  0
    0.6690    3.3780   -0.8600 C   0  0  0  0  0  0  0  0  0  0  0  0
    1.3400    2.1770   -0.3810 C   0  0  0  0  0  0  0  0  0  0  0  0
    2.5830    1.9600   -0.7830 C   0  0  0  0  0  0  0  0  0  0  0  0
    3.4200    0.8490   -0.4340 C   0  0  0  0  0  0  0  0  0  0  0  0
    3.6780    0.4380    0.7740 C   0  0  0  0  0  0  0  0  0  0  0  0
    3.9230   -0.8060    1.0720 C   0  0  0  0  0  0  0  0  0  0  0  0
    4.4110   -1.8210    0.1380 C   0  0  0  0  0  0  0  0  0  0  0  0
    3.4230   -2.4950   -0.5460 O   0  0  0  0  0  0  0  0  0  0  0  0
    2.2780   -2.7140    0.2060 C   0  0  0  0  0  0  0  0  0  0  0  0
    1.1190   -2.0300   -0.4660 C   0  0  0  0  0  0  0  0  0  0  0  0
    0.3670   -1.1790    0.4280 N   0  0  0  0  0  0  0  0  0  0  0  0
    0.0290    0.0780   -0.2140 C   0  0  1  0  0  0  0  0  0  0  0  0
   -1.4700    0.1330   -0.3370 C   0  0  2  0  0  0  0  0  0  0  0  0
   -2.1560    0.1610    0.9840 C   0  0  0  0  0  0  0  0  0  0  0  0
   -3.5210   -0.2470    0.9610 N   0  0  0  0  0  0  0  0  0  0  0  0
   -4.4430    0.8620    0.8760 C   0  0  0  0  0  0  0  0  0  0  0  0
   -3.8280   -1.3040    0.0530 C   0  0  0  0  0  0  0  0  0  0  0  0
   -3.2170   -0.9590   -1.2960 C   0  0  0  0  0  0  0  0  0  0  0  0
   -1.8350   -0.9810   -1.1200 O   0  0  0  0  0  0  0  0  0  0  0  0
    0.6170    1.2580    0.5240 C   0  0  0  0  0  0  0  0  0  0  0  0
  1  2  2  0
  2  3  1  0
  3  4  2  0
  3 21  1  0
  4  5  1  0
  5  6  2  0
  6  7  2  0
  7  8  1  0
  8  9  1  0
  9 10  1  0
 10 11  1  0
 11 12  1  0
 12 13  1  0
 13 14  1  0
 13 21  1  1
 14 15  1  1
 14 20  1  0
 15 16  1  0
 16 17  1  0
 16 18  1  0
 18 19  1  0
 19 20  1  0
M  CHG  1  12   1
M  END
