
     RDKit          3D

 21 23  0  0  0  0  0  0  0  0999 V2000
   -3.9880    0.0000    0.6890 C   0  0  0  0  0  0  0  0  0  0  0  0
   -2.7560   -0.5350    0.1250 N   0  0  0  0  0  0  0  0  0  0  0  0
   -1.5920   -0.2240    0.9010 C   0  0  2  0  0  0  0  0  0  0  0  0
   -0.9780    1.1680    0.5180 C   0  0  0  0  0  0  0  0  0  0  0  0
    0.2740    1.4680    0.8390 C   0  0  0  0  0  0  0  0  0  0  0  0
    0.9520    2.4180   -0.0310 C   0  0  0  0  0  0  0  0  0  0  0  0
    2.2940    2.5650   -0.2440 C   0  0  0  0  0  0  0  0  0  0  0  0
    3.3490    1.7470    0.3780 C   0  0  0  0  0  0  0  0  0  0  0  0
    3.5870    0.4610    0.2370 C   0  0  0  0  0  0  0  0  0  0  0  0
    3.1040   -0.7120   -0.4480 C   0  0  0  0  0  0  0  0  0  0  0  0
    4.0950   -1.1560   -1.3040 O   0  0  0  0  0  0  0  0  0  0  0  0
    1.8710   -1.4420   -0.3900 N   0  0  0  0  0  0  0  0  0  0  0  0
    0.8410   -1.4890   -1.4440 C   0  0  0  0  0  0  0  0  0  0  0  0
   -0.5670   -1.8410   -0.8490 C   0  0  0  0  0  0  0  0  0  0  0  0
   -0.5320   -1.1780    0.4520 C   0  0  2  0  0  0  0  0  0  0  0  0
    0.1590   -2.0790    1.3850 C   0  0  0  0  0  0  0  0  0  0  0  0
    1.5290   -2.3070    0.7560 C   0  0  0  0  0  0  0  0  0  0  0  0
    0.1510    3.0180   -1.1440 C   0  0  0  0  0  0  0  0  0  0  0  0
    0.6900    3.8730   -1.9330 O   0  0  0  0  0  0  0  0  0  0  0  0
   -1.2250    2.6930   -1.4000 C   0  0  0  0  0  0  0  0  0  0  0  0
   -1.7460    1.7680   -0.5660 C   0  0  0  0  0  0  0  0  0  0  0  0
  1  2  1  0
  3  2  1  6
  3  4  1  0
  3 15  1  0
  4  5  2  0
  4 21  1  0
  5  6  1  0
  6  7  2  0
  6 18  1  0
  7  8  1  0
  8  9  2  0
  9 10  1  0
 10 11  2  0
 10 12  1  0
 12 13  1  0
 12 17  1  0
 13 14  1  0
 14 15  1  0
 15 16  1  1
 16 17  1  0
 18 19  2  0
 18 20  1  0
 20 21  2  0
M  CHG  1   2   1
M  END
