
     RDKit          3D

  9  9  0  0  0  0  0  0  0  0999 V2000
   -2.2330   -1.3980    0.0960 O   0  0  0  0  0  0  0  0  0  0  0  0
   -1.1640   -0.7170    0.0500 C   0  0  0  0  0  0  0  0  0  0  0  0
    0.0030   -1.3930    0.0200 N   0  0  0  0  0  0  0  0  0  0  0  0
    1.1560   -0.6870   -0.0290 C   0  0  0  0  0  0  0  0  0  0  0  0
    1.1630    0.6950   -0.0490 C   0  0  0  0  0  0  0  0  0  0  0  0
    2.3380    1.3860   -0.0990 F   0  0  0  0  0  0  0  0  0  0  0  0
   -0.0500    1.3540   -0.0180 C   0  0  0  0  0  0  0  0  0  0  0  0
   -0.0460    2.6100   -0.0360 O   0  0  0  0  0  0  0  0  0  0  0  0
   -1.2000    0.6290    0.0320 N   0  0  0  0  0  0  0  0  0  0  0  0
  1  2  2  0
  2  3  1  0
  2  9  1  0
  3  4  1  0
  4  5  2  0
  5  6  1  0
  5  7  1  0
  7  8  2  0
  7  9  1  0
M  END
