
     RDKit          3D

 21 23  0  0  0  0  0  0  0  0999 V2000
   -4.5030    1.0140    0.4660 C   0  0  0  0  0  0  0  0  0  0  0  0
   -3.2000    0.9160    0.6790 C   0  0  0  0  0  0  0  0  0  0  0  0
   -2.4220    1.8420    1.4570 N   0  0  0  0  0  0  0  0  0  0  0  0
   -1.1150    1.2600    1.5530 C   0  0  0  0  0  0  0  0  0  0  0  0
   -0.9680    0.5660    0.1910 C   0  0  1  0  0  0  0  0  0  0  0  0
   -0.9310    1.6190   -0.8590 C   0  0  0  0  0  0  0  0  0  0  0  0
   -0.3020    1.1510   -2.1520 C   0  0  0  0  0  0  0  0  0  0  0  0
    1.0180    0.5280   -1.9240 C   0  0  0  0  0  0  0  0  0  0  0  0
    1.9790    0.8260   -2.6550 O   0  0  0  0  0  0  0  0  0  0  0  0
    1.1420   -0.4060   -0.8580 N   0  0  0  0  0  0  0  0  0  0  0  0
    2.2500   -1.3240   -0.8470 C   0  0  0  0  0  0  0  0  0  0  0  0
    3.4110   -0.7270   -0.1180 C   0  0  0  0  0  0  0  0  0  0  0  0
    3.4110    0.4620    0.4280 C   0  0  0  0  0  0  0  0  0  0  0  0
    4.7200    0.7050    1.0510 C   0  0  0  0  0  0  0  0  0  0  0  0
    5.4900   -0.5210    0.7880 C   0  0  0  0  0  0  0  0  0  0  0  0
    4.7030   -1.3330    0.1080 C   0  0  0  0  0  0  0  0  0  0  0  0
    0.1430   -0.3780    0.1570 C   0  0  0  0  0  0  0  0  0  0  0  0
    0.2380   -1.2290    1.0790 O   0  0  0  0  0  0  0  0  0  0  0  0
   -2.3130   -0.1240    0.1760 C   0  0  0  0  0  0  0  0  0  0  0  0
   -2.5810   -1.3370   -0.1860 C   0  0  0  0  0  0  0  0  0  0  0  0
   -3.8980   -2.0060   -0.1830 C   0  0  0  0  0  0  0  0  0  0  0  0
  1  2  2  0
  2  3  1  0
  2 19  1  0
  3  4  1  0
  5  4  1  1
  5  6  1  0
  5 17  1  0
  5 19  1  0
  6  7  1  0
  7  8  1  0
  8  9  2  0
  8 10  1  0
 10 11  1  0
 10 17  1  0
 11 12  1  0
 12 13  2  0
 12 16  1  0
 13 14  1  0
 14 15  1  0
 15 16  2  0
 17 18  2  0
 19 20  2  3
 20 21  1  0
M  CHG  1   3   1
M  END
