
     RDKit          3D

 21 23  0  0  0  0  0  0  0  0999 V2000
    5.2710   -1.6640   -0.9800 C   0  0  0  0  0  0  0  0  0  0  0  0
    4.5700   -0.3530   -0.7310 C   0  0  2  0  0  0  0  0  0  0  0  0
    5.3800    0.5710    0.1190 C   0  0  0  0  0  0  0  0  0  0  0  0
    4.5350    1.6980    0.6400 C   0  0  0  0  0  0  0  0  0  0  0  0
    3.2920    1.8560   -0.2110 C   0  0  0  0  0  0  0  0  0  0  0  0
    2.4210    0.6320   -0.1510 C   0  0  2  0  0  0  0  0  0  0  0  0
    1.5760    0.7330    1.0210 N   0  0  0  0  0  0  0  0  0  0  0  0
    0.3240    0.0520    0.8640 C   0  0  0  0  0  0  0  0  0  0  0  0
   -0.6200    0.8010    0.0040 C   0  0  0  0  0  0  0  0  0  0  0  0
   -0.2150    1.9080   -0.4660 O   0  0  0  0  0  0  0  0  0  0  0  0
   -1.9140    0.3020   -0.2780 N   0  0  0  0  0  0  0  0  0  0  0  0
   -2.7810    1.1000   -1.1330 C   0  0  0  0  0  0  0  0  0  0  0  0
   -4.2040    0.6910   -0.8300 C   0  0  1  0  0  0  0  0  0  0  0  0
   -4.4420   -0.6790   -1.4600 C   0  0  0  0  0  0  0  0  0  0  0  0
   -4.6380   -1.6310   -0.2770 C   0  0  0  0  0  0  0  0  0  0  0  0
   -3.7480   -0.9530    0.7560 C   0  0  1  0  0  0  0  0  0  0  0  0
   -3.8990   -1.5480    2.1110 C   0  0  0  0  0  0  0  0  0  0  0  0
   -2.3100   -0.9660    0.2890 C   0  0  0  0  0  0  0  0  0  0  0  0
   -4.2950    0.4800    0.6680 C   0  0  1  0  0  0  0  0  0  0  0  0
   -3.4900    1.3650    1.3740 O   0  0  0  0  0  0  0  0  0  0  0  0
    3.2210   -0.6320   -0.0810 C   0  0  0  0  0  0  0  0  0  0  0  0
  2  1  1  1
  2  3  1  0
  2 21  1  0
  3  4  1  0
  4  5  1  0
  5  6  1  0
  6  7  1  1
  6 21  1  0
  7  8  1  0
  8  9  1  0
  9 10  2  0
  9 11  1  0
 11 12  1  0
 11 18  1  0
 13 12  1  1
 13 14  1  0
 13 19  1  0
 14 15  1  0
 15 16  1  0
 16 17  1  1
 16 18  1  0
 16 19  1  0
 19 20  1  1
M  CHG  1   7   1
M  END
