
     RDKit          3D

 21 23  0  0  0  0  0  0  0  0999 V2000
   -5.0850   -2.0170   -0.6150 C   0  0  0  0  0  0  0  0  0  0  0  0
   -3.6140   -1.6420   -0.6350 C   0  0  0  0  0  0  0  0  0  0  0  0
   -3.2690   -0.7920    0.4790 N   0  0  1  0  0  0  0  0  0  0  0  0
   -2.0370   -1.1790    1.1240 C   0  0  0  0  0  0  0  0  0  0  0  0
   -1.2440    0.0450    1.5960 C   0  0  2  0  0  0  0  0  0  0  0  0
   -2.2420    0.9880    2.2770 C   0  0  0  0  0  0  0  0  0  0  0  0
   -3.1590    1.4920    1.1770 C   0  0  0  0  0  0  0  0  0  0  0  0
   -3.1000    0.5620   -0.0360 C   0  0  1  0  0  0  0  0  0  0  0  0
   -1.7380    0.6530   -0.7070 C   0  0  0  0  0  0  0  0  0  0  0  0
   -0.7170    0.8070    0.3890 C   0  0  2  0  0  0  0  0  0  0  0  0
    0.5740    0.2530    0.0250 N   0  0  0  0  0  0  0  0  0  0  0  0
    1.7670    0.9870    0.0050 C   0  0  0  0  0  0  0  0  0  0  0  0
    1.6480    2.2160    0.3360 O   0  0  0  0  0  0  0  0  0  0  0  0
    3.0860    0.5120   -0.3430 C   0  0  0  0  0  0  0  0  0  0  0  0
    4.2260    1.3230   -0.3350 C   0  0  0  0  0  0  0  0  0  0  0  0
    4.2470    2.7830    0.0290 C   0  0  0  0  0  0  0  0  0  0  0  0
    5.2640    0.6100   -0.6950 O   0  0  0  0  0  0  0  0  0  0  0  0
    4.9190   -0.6210   -0.9460 C   0  0  0  0  0  0  0  0  0  0  0  0
    5.7560   -1.7660   -1.3800 C   0  0  0  0  0  0  0  0  0  0  0  0
    3.5340   -0.7250   -0.7330 C   0  0  0  0  0  0  0  0  0  0  0  0
    2.7000   -1.9260   -0.8920 C   0  0  0  0  0  0  0  0  0  0  0  0
  1  2  1  0
  3  2  1  6
  3  4  1  0
  3  8  1  0
  4  5  1  0
  5  6  1  6
  5 10  1  0
  6  7  1  0
  8  7  1  1
  8  9  1  0
  9 10  1  0
 10 11  1  6
 11 12  1  0
 12 13  2  0
 12 14  1  0
 14 15  2  0
 14 20  1  0
 15 16  1  0
 15 17  1  0
 17 18  1  0
 18 19  1  0
 18 20  2  0
 20 21  1  0
M  CHG  1   3   1
M  END
