
     RDKit          3D

 12 11  0  0  0  0  0  0  0  0999 V2000
    3.4620    2.1270   -0.4940 O   0  0  0  0  0  0  0  0  0  0  0  0
    3.8970    0.9310    0.0610 C   0  0  0  0  0  0  0  0  0  0  0  0
    2.8670    0.0970    0.4460 O   0  0  0  0  0  0  0  0  0  0  0  0
    2.0760   -0.2270   -0.6560 C   0  0  0  0  0  0  0  0  0  0  0  0
    0.9350   -1.1410   -0.2740 C   0  0  1  0  0  0  0  0  0  0  0  0
    1.3990   -2.3380    0.2680 O   0  0  0  0  0  0  0  0  0  0  0  0
    0.0280   -0.5190    0.5720 O   0  0  0  0  0  0  0  0  0  0  0  0
   -1.1990   -0.4540   -0.0620 C   0  0  0  0  0  0  0  0  0  0  0  0
   -2.2550    0.2110    0.7870 C   0  0  2  0  0  0  0  0  0  0  0  0
   -2.4280   -0.4960    1.9650 O   0  0  0  0  0  0  0  0  0  0  0  0
   -3.5620    0.2010    0.0110 C   0  0  0  0  0  0  0  0  0  0  0  0
   -3.4440    0.8980   -1.1820 O   0  0  0  0  0  0  0  0  0  0  0  0
  1  2  1  0
  2  3  1  0
  3  4  1  0
  4  5  1  0
  5  6  1  1
  5  7  1  0
  7  8  1  0
  8  9  1  0
  9 10  1  1
  9 11  1  0
 11 12  1  0
M  END
