
     RDKit          3D

 12 11  0  0  0  0  0  0  0  0999 V2000
    3.4630    1.6480   -0.4620 O   0  0  0  0  0  0  0  0  0  0  0  0
    2.6630    0.6250   -1.0240 C   0  0  0  0  0  0  0  0  0  0  0  0
    2.4810   -0.4200    0.0410 C   0  0  0  0  0  0  0  0  0  0  0  0
    1.8730    0.1070    1.1390 O   0  0  0  0  0  0  0  0  0  0  0  0
    0.6300    0.5940    0.8570 C   0  0  0  0  0  0  0  0  0  0  0  0
   -0.1590   -0.4510    0.3630 O   0  0  0  0  0  0  0  0  0  0  0  0
   -1.4420   -0.0050    0.0590 C   0  0  2  0  0  0  0  0  0  0  0  0
   -2.4030   -0.7240    0.9550 C   0  0  0  0  0  0  0  0  0  0  0  0
   -2.0600   -0.4150    2.2730 O   0  0  0  0  0  0  0  0  0  0  0  0
   -1.7480   -0.1800   -1.4050 C   0  0  1  0  0  0  0  0  0  0  0  0
   -1.6830   -1.4770   -1.8350 O   0  0  0  0  0  0  0  0  0  0  0  0
   -2.9890    0.3750   -1.6880 O   0  0  0  0  0  0  0  0  0  0  0  0
  1  2  1  0
  2  3  1  0
  3  4  1  0
  4  5  1  0
  5  6  1  0
  6  7  1  0
  7  8  1  1
  7 10  1  0
  8  9  1  0
 10 11  1  1
 10 12  1  0
M  END
