
     RDKit          3D

 12 11  0  0  0  0  0  0  0  0999 V2000
   -4.1490    0.9000    0.2590 O   0  0  0  0  0  0  0  0  0  0  0  0
   -3.2870    0.9980   -0.8150 C   0  0  0  0  0  0  0  0  0  0  0  0
   -2.1480    0.0130   -0.6450 C   0  0  0  0  0  0  0  0  0  0  0  0
   -1.4920    0.3320    0.5260 O   0  0  0  0  0  0  0  0  0  0  0  0
   -0.4140   -0.5590    0.7340 C   0  0  2  0  0  0  0  0  0  0  0  0
   -0.7160   -1.2710    2.0420 C   0  0  0  0  0  0  0  0  0  0  0  0
    0.2910   -2.1850    2.3510 O   0  0  0  0  0  0  0  0  0  0  0  0
    0.7240    0.2250    0.8290 O   0  0  0  0  0  0  0  0  0  0  0  0
    1.6580   -0.0550   -0.1460 C   0  0  0  0  0  0  0  0  0  0  0  0
    2.7590    0.7780    0.0300 O   0  0  0  0  0  0  0  0  0  0  0  0
    3.7410    0.5250   -0.9490 C   0  0  0  0  0  0  0  0  0  0  0  0
    4.8160    1.3700   -0.7410 O   0  0  0  0  0  0  0  0  0  0  0  0
  1  2  1  0
  2  3  1  0
  3  4  1  0
  4  5  1  0
  5  6  1  1
  5  8  1  0
  6  7  1  0
  8  9  1  0
  9 10  1  0
 10 11  1  0
 11 12  1  0
M  END
