
     RDKit          3D

 12 11  0  0  0  0  0  0  0  0999 V2000
    4.2360    0.4680   -1.1130 O   0  0  0  0  0  0  0  0  0  0  0  0
    2.9220    0.8540   -1.3750 C   0  0  0  0  0  0  0  0  0  0  0  0
    2.3190    1.5090   -0.3300 O   0  0  0  0  0  0  0  0  0  0  0  0
    2.2380    0.7670    0.8390 C   0  0  0  0  0  0  0  0  0  0  0  0
    1.4310   -0.5080    0.6040 C   0  0  0  0  0  0  0  0  0  0  0  0
    0.1510   -0.2110    0.1900 O   0  0  0  0  0  0  0  0  0  0  0  0
   -0.5170   -1.4250   -0.0010 C   0  0  0  0  0  0  0  0  0  0  0  0
   -1.8060   -1.1850   -0.4170 O   0  0  0  0  0  0  0  0  0  0  0  0
   -2.5540   -0.4450    0.4820 C   0  0  2  0  0  0  0  0  0  0  0  0
   -3.6900   -1.1940    0.7900 O   0  0  0  0  0  0  0  0  0  0  0  0
   -3.0080    0.8270   -0.2070 C   0  0  0  0  0  0  0  0  0  0  0  0
   -3.7680    1.6250    0.6350 O   0  0  0  0  0  0  0  0  0  0  0  0
  1  2  1  0
  2  3  1  0
  3  4  1  0
  4  5  1  0
  5  6  1  0
  6  7  1  0
  7  8  1  0
  8  9  1  0
  9 10  1  6
  9 11  1  0
 11 12  1  0
M  END
