
     RDKit          3D

 12 11  0  0  0  0  0  0  0  0999 V2000
   -2.4450   -1.9800    0.2460 O   0  0  0  0  0  0  0  0  0  0  0  0
   -3.1120   -0.8080    0.5430 C   0  0  0  0  0  0  0  0  0  0  0  0
   -2.1720    0.3920    0.4750 C   0  0  2  0  0  0  0  0  0  0  0  0
   -2.9230    1.5490    0.7810 O   0  0  0  0  0  0  0  0  0  0  0  0
   -1.5510    0.5200   -0.8920 C   0  0  0  0  0  0  0  0  0  0  0  0
   -0.7800   -0.5600   -1.2200 O   0  0  0  0  0  0  0  0  0  0  0  0
    0.3020   -0.7850   -0.4070 C   0  0  0  0  0  0  0  0  0  0  0  0
    1.1980    0.2790   -0.3850 O   0  0  0  0  0  0  0  0  0  0  0  0
    2.2830    0.0750    0.4180 C   0  0  2  0  0  0  0  0  0  0  0  0
    2.3900    0.9760    1.4710 O   0  0  0  0  0  0  0  0  0  0  0  0
    3.6010    0.0720   -0.3180 C   0  0  0  0  0  0  0  0  0  0  0  0
    3.8360    1.2730   -0.9690 O   0  0  0  0  0  0  0  0  0  0  0  0
  1  2  1  0
  2  3  1  0
  3  4  1  6
  3  5  1  0
  5  6  1  0
  6  7  1  0
  7  8  1  0
  8  9  1  0
  9 10  1  1
  9 11  1  0
 11 12  1  0
M  END
