
     RDKit          3D

 12 11  0  0  0  0  0  0  0  0999 V2000
    4.4820    1.9460   -0.0670 O   0  0  0  0  0  0  0  0  0  0  0  0
    4.0350    0.8290   -0.7700 C   0  0  0  0  0  0  0  0  0  0  0  0
    2.8230    0.2180   -0.1040 C   0  0  0  0  0  0  0  0  0  0  0  0
    2.3820   -0.8930   -0.8060 O   0  0  0  0  0  0  0  0  0  0  0  0
    1.2700   -1.4780   -0.2210 C   0  0  0  0  0  0  0  0  0  0  0  0
    0.1810   -0.6010   -0.1440 O   0  0  0  0  0  0  0  0  0  0  0  0
   -0.8550   -1.3090    0.4570 C   0  0  0  0  0  0  0  0  0  0  0  0
   -2.0930   -0.4640    0.5960 C   0  0  0  0  0  0  0  0  0  0  0  0
   -2.5850   -0.0080   -0.6010 O   0  0  0  0  0  0  0  0  0  0  0  0
   -3.7170    0.7540   -0.3670 C   0  0  2  0  0  0  0  0  0  0  0  0
   -4.8520    0.2060   -0.9710 O   0  0  0  0  0  0  0  0  0  0  0  0
   -3.5910    2.0510   -0.8850 O   0  0  0  0  0  0  0  0  0  0  0  0
  1  2  1  0
  2  3  1  0
  3  4  1  0
  4  5  1  0
  5  6  1  0
  6  7  1  0
  7  8  1  0
  8  9  1  0
  9 10  1  0
 10 11  1  6
 10 12  1  0
M  END
