
     RDKit          3D

 12 11  0  0  0  0  0  0  0  0999 V2000
   -0.2540   -0.9360    0.4790 O   0  0  0  0  0  0  0  0  0  0  0  0
    0.3550    0.1480    0.3510 C   0  0  0  0  0  0  0  0  0  0  0  0
   -0.3390    1.4040    0.0070 C   0  0  0  0  0  0  0  0  0  0  0  0
   -1.6850    1.3160   -0.1650 O   0  0  0  0  0  0  0  0  0  0  0  0
   -2.1270    0.4710   -1.1620 C   0  0  2  0  0  0  0  0  0  0  0  0
   -2.6620    1.2820   -2.2030 O   0  0  0  0  0  0  0  0  0  0  0  0
   -3.2260   -0.4690   -0.7360 C   0  0  0  0  0  0  0  0  0  0  0  0
   -4.3060    0.3420   -0.3210 O   0  0  0  0  0  0  0  0  0  0  0  0
    1.7360    0.1180    0.5500 O   0  0  0  0  0  0  0  0  0  0  0  0
    2.4080   -1.0950    0.8820 C   0  0  0  0  0  0  0  0  0  0  0  0
    3.8810   -0.7480    1.0210 C   0  0  0  0  0  0  0  0  0  0  0  0
    4.3480   -0.2360   -0.1770 O   0  0  0  0  0  0  0  0  0  0  0  0
  1  2  2  0
  2  3  1  0
  2  9  1  0
  3  4  1  0
  4  5  1  0
  5  6  1  6
  5  7  1  0
  7  8  1  0
  9 10  1  0
 10 11  1  0
 11 12  1  0
M  END
