
     RDKit          3D

 44 48  0  0  0  0  0  0  0  0999 V2000
   12.4820    0.7830    0.9720 C   0  0  0  0  0  0  0  0  0  0  0  0
   11.0590    1.2450    0.9560 C   0  0  1  0  0  0  0  0  0  0  0  0
   10.1740    0.4170   -0.4370 S   0  0  0  0  0  0  0  0  0  0  0  0
    9.6040   -0.9850    0.5140 C   0  0  0  0  0  0  0  0  0  0  0  0
    9.0810   -2.2650   -0.0260 C   0  0  0  0  0  0  0  0  0  0  0  0
    7.8500   -1.8960   -0.8640 C   0  0  0  0  0  0  0  0  0  0  0  0
    6.8870   -1.2320    0.0490 C   0  0  0  0  0  0  0  0  0  0  0  0
    5.5960   -0.7790   -0.5600 C   0  0  2  0  0  0  0  0  0  0  0  0
    4.8670   -0.1530    0.5220 O   0  0  0  0  0  0  0  0  0  0  0  0
    3.5090    0.0940    0.2770 C   0  0  0  0  0  0  0  0  0  0  0  0
    2.8720    1.1330    0.9220 C   0  0  0  0  0  0  0  0  0  0  0  0
    1.5210    1.4110    0.7060 C   0  0  0  0  0  0  0  0  0  0  0  0
    0.7740    0.6500   -0.1650 C   0  0  0  0  0  0  0  0  0  0  0  0
   -0.6400    0.9490   -0.3820 C   0  0  0  0  0  0  0  0  0  0  0  0
   -1.1920    1.9080    0.2260 O   0  0  0  0  0  0  0  0  0  0  0  0
   -1.4340    0.2220   -1.2420 O   0  0  0  0  0  0  0  0  0  0  0  0
   -2.8250    0.5200   -1.4500 C   0  0  1  0  0  0  0  0  0  0  0  0
   -2.9520    1.9160   -1.9760 C   0  0  0  0  0  0  0  0  0  0  0  0
   -3.2550   -0.4110   -2.5860 C   0  0  0  0  0  0  0  0  0  0  0  0
   -4.1980   -1.4040   -1.9810 C   0  0  0  0  0  0  0  0  0  0  0  0
   -5.2860   -0.6920   -1.4770 O   0  0  0  0  0  0  0  0  0  0  0  0
   -4.9950   -0.0910   -0.2860 C   0  0  1  0  0  0  0  0  0  0  0  0
   -5.6950    1.2650   -0.1290 C   0  0  0  0  0  0  0  0  0  0  0  0
   -6.9960    1.2120   -0.8400 C   0  0  0  0  0  0  0  0  0  0  0  0
   -7.8880    2.1940   -0.4990 O   0  0  0  0  0  0  0  0  0  0  0  0
   -7.8930    2.5260    0.8470 C   0  0  0  0  0  0  0  0  0  0  0  0
   -8.3870    1.4280    1.7280 C   0  0  0  0  0  0  0  0  0  0  0  0
   -9.4110    0.6660    0.9760 C   0  0  0  0  0  0  0  0  0  0  0  0
   -9.5910   -0.6320    0.9310 C   0  0  0  0  0  0  0  0  0  0  0  0
   -8.8810   -1.7080    1.5690 C   0  0  0  0  0  0  0  0  0  0  0  0
   -9.5020   -2.2400    2.5880 O   0  0  0  0  0  0  0  0  0  0  0  0
   -7.6280   -2.3040    1.2920 N   0  0  0  0  0  0  0  0  0  0  0  0
   -6.5150   -1.8890    0.5810 C   0  0  0  0  0  0  0  0  0  0  0  0
   -6.3420   -2.4180   -0.5900 O   0  0  0  0  0  0  0  0  0  0  0  0
   -5.4430   -0.9220    0.9230 C   0  0  0  0  0  0  0  0  0  0  0  0
   -3.5210    0.2390   -0.1740 C   0  0  0  0  0  0  0  0  0  0  0  0
    1.4160   -0.3850   -0.8060 C   0  0  0  0  0  0  0  0  0  0  0  0
    2.7550   -0.6660   -0.5960 C   0  0  0  0  0  0  0  0  0  0  0  0
    3.4280   -1.7290   -1.2490 N   0  0  0  0  0  0  0  0  0  0  0  0
    4.8250   -1.9870   -1.0000 C   0  0  0  0  0  0  0  0  0  0  0  0
    5.3140   -3.1250   -1.1480 O   0  0  0  0  0  0  0  0  0  0  0  0
    9.7390   -0.6530    1.7750 C   0  0  0  0  0  0  0  0  0  0  0  0
   10.2640    0.6380    2.0610 C   0  0  0  0  0  0  0  0  0  0  0  0
   10.1080    1.2900    3.1580 O   0  0  0  0  0  0  0  0  0  0  0  0
  2  1  1  1
  2  3  1  0
  2 43  1  0
  3  4  1  0
  4  5  1  0
  4 42  2  0
  5  6  1  0
  6  7  1  0
  8  7  1  1
  8  9  1  0
  8 40  1  0
  9 10  1  0
 10 11  2  0
 10 38  1  0
 11 12  1  0
 12 13  2  0
 13 14  1  0
 13 37  1  0
 14 15  2  0
 14 16  1  0
 16 17  1  0
 17 18  1  6
 17 19  1  0
 17 36  1  0
 19 20  1  0
 20 21  1  0
 21 22  1  0
 22 23  1  6
 22 35  1  0
 22 36  1  0
 23 24  1  0
 24 25  1  0
 25 26  1  0
 26 27  1  0
 27 28  1  0
 28 29  2  0
 29 30  1  0
 30 31  2  0
 30 32  1  0
 32 33  1  0
 33 34  2  0
 33 35  1  0
 37 38  2  0
 38 39  1  0
 39 40  1  0
 40 41  2  0
 42 43  1  0
 43 44  2  0
M  END
