
     RDKit          3D

 44 48  0  0  0  0  0  0  0  0999 V2000
    4.1310    5.7030    1.2440 C   0  0  0  0  0  0  0  0  0  0  0  0
    3.5760    4.3810    1.2100 O   0  0  0  0  0  0  0  0  0  0  0  0
    3.6590    3.5410    2.2880 C   0  0  0  0  0  0  0  0  0  0  0  0
    4.2410    3.9450    3.3230 O   0  0  0  0  0  0  0  0  0  0  0  0
    3.0640    2.1310    2.2690 C   0  0  0  0  0  0  0  0  0  0  0  0
    2.5240    1.9540    0.9370 N   0  0  0  0  0  0  0  0  0  0  0  0
    3.4170    1.4880   -0.1050 C   0  0  0  0  0  0  0  0  0  0  0  0
    4.5990    1.2210    0.1310 O   0  0  0  0  0  0  0  0  0  0  0  0
    2.8770    1.3390   -1.4630 C   0  0  0  0  0  0  0  0  0  0  0  0
    3.1660    0.3890   -2.2850 C   0  0  0  0  0  0  0  0  0  0  0  0
    4.0700   -0.7410   -2.1040 C   0  0  0  0  0  0  0  0  0  0  0  0
    3.5160   -1.9960   -2.1660 C   0  0  0  0  0  0  0  0  0  0  0  0
    4.3070   -3.1000   -2.0490 C   0  0  0  0  0  0  0  0  0  0  0  0
    5.6690   -2.9780   -1.8680 C   0  0  0  0  0  0  0  0  0  0  0  0
    6.2410   -1.7290   -1.8040 C   0  0  0  0  0  0  0  0  0  0  0  0
    5.4260   -0.6160   -1.9250 C   0  0  0  0  0  0  0  0  0  0  0  0
    7.6110   -1.8860   -1.6190 O   0  0  0  0  0  0  0  0  0  0  0  0
    7.8590   -3.2470   -1.2970 C   0  0  0  0  0  0  0  0  0  0  0  0
    6.6830   -3.9350   -1.7220 O   0  0  0  0  0  0  0  0  0  0  0  0
    1.7050    2.6210   -2.0160 S   0  0  0  0  0  0  0  0  0  0  0  0
    0.8470    3.2050   -0.5110 C   0  0  0  0  0  0  0  0  0  0  0  0
    1.1750    2.2420    0.6200 C   0  0  0  0  0  0  0  0  0  0  0  0
    0.1770    1.6130    1.1900 C   0  0  0  0  0  0  0  0  0  0  0  0
    0.1540    0.5610    2.1650 C   0  0  0  0  0  0  0  0  0  0  0  0
    1.2890    0.0740    2.5430 O   0  0  0  0  0  0  0  0  0  0  0  0
   -1.0250   -0.0310    2.7940 C   0  0  0  0  0  0  0  0  0  0  0  0
   -2.3660    0.2640    2.2110 C   0  0  1  0  0  0  0  0  0  0  0  0
   -2.4330   -0.2420    0.8560 N   0  0  0  0  0  0  0  0  0  0  0  0
   -2.8580    0.4290   -0.3030 C   0  0  0  0  0  0  0  0  0  0  0  0
   -3.2350    1.6210   -0.2210 O   0  0  0  0  0  0  0  0  0  0  0  0
   -2.8700   -0.2670   -1.6470 C   0  0  1  0  0  0  0  0  0  0  0  0
   -2.4100   -1.5520   -1.5440 O   0  0  0  0  0  0  0  0  0  0  0  0
   -3.3890   -2.4480   -1.8920 C   0  0  2  0  0  0  0  0  0  0  0  0
   -2.8020   -3.6820   -2.5770 C   0  0  0  0  0  0  0  0  0  0  0  0
   -4.2840   -1.6800   -2.8720 C   0  0  0  0  0  0  0  0  0  0  0  0
   -4.2760   -0.3080   -2.1920 C   0  0  2  0  0  0  0  0  0  0  0  0
   -4.5880    0.8010   -3.1560 C   0  0  0  0  0  0  0  0  0  0  0  0
   -3.4390   -0.4250    3.0090 C   0  0  0  0  0  0  0  0  0  0  0  0
   -3.1490   -1.4220    3.9070 C   0  0  0  0  0  0  0  0  0  0  0  0
   -4.1510   -2.0790    4.6190 C   0  0  0  0  0  0  0  0  0  0  0  0
   -5.4630   -1.7340    4.4320 C   0  0  0  0  0  0  0  0  0  0  0  0
   -5.7600   -0.7400    3.5400 C   0  0  0  0  0  0  0  0  0  0  0  0
   -4.7440   -0.0880    2.8310 C   0  0  0  0  0  0  0  0  0  0  0  0
   -5.1340    0.8990    1.9600 O   0  0  0  0  0  0  0  0  0  0  0  0
  1  2  1  0
  2  3  1  0
  3  4  2  0
  3  5  1  0
  5  6  1  0
  6  7  1  0
  6 22  1  0
  7  8  2  0
  7  9  1  0
  9 10  2  3
  9 20  1  0
 10 11  1  0
 11 12  2  0
 11 16  1  0
 12 13  1  0
 13 14  2  0
 14 15  1  0
 14 19  1  0
 15 16  2  0
 15 17  1  0
 17 18  1  0
 18 19  1  0
 20 21  1  0
 21 22  1  0
 22 23  2  3
 23 24  1  0
 24 25  2  0
 24 26  1  0
 27 26  1  1
 27 28  1  0
 27 38  1  0
 28 29  1  0
 29 30  2  0
 31 29  1  1
 31 32  1  0
 31 36  1  0
 32 33  1  0
 33 34  1  6
 33 35  1  0
 35 36  1  0
 36 37  1  6
 38 39  2  0
 38 43  1  0
 39 40  1  0
 40 41  2  0
 41 42  1  0
 42 43  2  0
 43 44  1  0
M  END
