
     RDKit          3D

 44 48  0  0  0  0  0  0  0  0999 V2000
   -5.8300   -3.0220    2.1280 C   0  0  0  0  0  0  0  0  0  0  0  0
   -5.8200   -1.6510    2.7280 C   0  0  0  0  0  0  0  0  0  0  0  0
   -7.0010   -0.8420    2.3100 C   0  0  0  0  0  0  0  0  0  0  0  0
   -8.0580   -0.6580    3.2090 C   0  0  0  0  0  0  0  0  0  0  0  0
   -9.1780    0.0790    2.8450 C   0  0  0  0  0  0  0  0  0  0  0  0
   -9.2880    0.6530    1.5970 C   0  0  0  0  0  0  0  0  0  0  0  0
  -10.4200    1.3930    1.2330 O   0  0  0  0  0  0  0  0  0  0  0  0
  -10.5040    1.9700   -0.0510 C   0  0  0  0  0  0  0  0  0  0  0  0
   -8.2550    0.4780    0.7120 C   0  0  0  0  0  0  0  0  0  0  0  0
   -7.1200   -0.2670    1.0730 C   0  0  0  0  0  0  0  0  0  0  0  0
   -6.0620   -0.4030    0.0630 C   0  0  0  0  0  0  0  0  0  0  0  0
   -4.9010    0.5240    0.3050 C   0  0  0  0  0  0  0  0  0  0  0  0
   -4.9740    1.2720    1.2840 O   0  0  0  0  0  0  0  0  0  0  0  0
   -3.8050    0.4600   -0.6260 C   0  0  0  0  0  0  0  0  0  0  0  0
   -3.7650   -0.5550   -1.5730 C   0  0  0  0  0  0  0  0  0  0  0  0
   -2.7540   -0.7340   -2.4730 C   0  0  0  0  0  0  0  0  0  0  0  0
   -1.7060    0.1970   -2.3990 C   0  0  0  0  0  0  0  0  0  0  0  0
   -1.6720    1.2200   -1.5000 C   0  0  0  0  0  0  0  0  0  0  0  0
   -0.6030    2.1070   -1.4120 N   0  0  0  0  0  0  0  0  0  0  0  0
    0.4640    2.1690   -2.2990 C   0  0  0  0  0  0  0  0  0  0  0  0
    0.5860    1.4360   -3.2770 O   0  0  0  0  0  0  0  0  0  0  0  0
    1.5480    3.1960   -2.0560 C   0  0  0  0  0  0  0  0  0  0  0  0
    2.7720    3.0740   -3.3100 S   0  0  0  0  0  0  0  0  0  0  0  0
    3.7600    1.6480   -3.3790 C   0  0  0  0  0  0  0  0  0  0  0  0
    4.4680    1.5870   -4.5180 O   0  0  0  0  0  0  0  0  0  0  0  0
    3.9580    0.5800   -2.5150 N   0  0  0  0  0  0  0  0  0  0  0  0
    3.3890    0.4180   -1.2230 C   0  0  0  0  0  0  0  0  0  0  0  0
    4.5710    0.6300   -0.2530 C   0  0  0  0  0  0  0  0  0  0  0  0
    5.8110   -0.0830   -0.6260 C   0  0  1  0  0  0  0  0  0  0  0  0
    6.2500   -0.8860    0.5820 C   0  0  2  0  0  0  0  0  0  0  0  0
    6.7300   -0.0630    1.6030 O   0  0  0  0  0  0  0  0  0  0  0  0
    8.1000   -0.0690    1.6600 C   0  0  0  0  0  0  0  0  0  0  0  0
    8.7340   -1.4190    1.7640 C   0  0  1  0  0  0  0  0  0  0  0  0
    9.1710   -1.6650    3.1910 C   0  0  0  0  0  0  0  0  0  0  0  0
    7.8850   -2.4360    1.2840 O   0  0  0  0  0  0  0  0  0  0  0  0
    7.2960   -1.8830    0.1430 C   0  0  2  0  0  0  0  0  0  0  0  0
    8.2830   -1.2980   -0.6770 O   0  0  0  0  0  0  0  0  0  0  0  0
    6.5770   -2.8740   -0.6800 C   0  0  0  0  0  0  0  0  0  0  0  0
    6.7080   -4.0870   -0.5590 O   0  0  0  0  0  0  0  0  0  0  0  0
    5.7170   -2.3000   -1.6290 O   0  0  0  0  0  0  0  0  0  0  0  0
    5.8180   -0.8760   -1.8590 C   0  0  1  0  0  0  0  0  0  0  0  0
    4.8140   -0.5470   -2.9010 C   0  0  0  0  0  0  0  0  0  0  0  0
   -2.7580    1.3440   -0.5960 C   0  0  0  0  0  0  0  0  0  0  0  0
   -2.6940    2.5180    0.3200 C   0  0  0  0  0  0  0  0  0  0  0  0
  1  2  1  0
  2  3  1  0
  3  4  2  0
  3 10  1  0
  4  5  1  0
  5  6  2  0
  6  7  1  0
  6  9  1  0
  7  8  1  0
  9 10  2  0
 10 11  1  0
 11 12  1  0
 12 13  2  0
 12 14  1  0
 14 15  2  0
 14 43  1  0
 15 16  1  0
 16 17  2  0
 17 18  1  0
 18 19  1  0
 18 43  2  0
 19 20  1  0
 20 21  2  0
 20 22  1  0
 22 23  1  0
 23 24  1  0
 24 25  2  0
 24 26  1  0
 26 27  1  0
 26 42  1  0
 27 28  1  0
 29 28  1  1
 29 30  1  0
 29 41  1  0
 30 31  1  1
 30 36  1  0
 31 32  1  0
 32 33  1  0
 33 34  1  1
 33 35  1  0
 35 36  1  0
 36 37  1  6
 36 38  1  0
 38 39  2  0
 38 40  1  0
 40 41  1  0
 41 42  1  6
 43 44  1  0
M  END
