
     RDKit          3D

 44 48  0  0  0  0  0  0  0  0999 V2000
  -11.4290    0.1780    2.5700 C   0  0  0  0  0  0  0  0  0  0  0  0
  -10.4160    0.7030    1.5580 C   0  0  0  0  0  0  0  0  0  0  0  0
   -9.7860   -0.3830    0.8420 C   0  0  0  0  0  0  0  0  0  0  0  0
  -10.4950   -1.0560    0.0290 O   0  0  0  0  0  0  0  0  0  0  0  0
   -8.3510   -0.7910    0.9650 C   0  0  0  0  0  0  0  0  0  0  0  0
   -7.7760   -1.5660    0.0220 C   0  0  0  0  0  0  0  0  0  0  0  0
   -6.4540   -1.8840    0.1530 C   0  0  0  0  0  0  0  0  0  0  0  0
   -5.5950   -2.6800   -0.6840 C   0  0  0  0  0  0  0  0  0  0  0  0
   -6.1360   -3.1860   -1.7290 O   0  0  0  0  0  0  0  0  0  0  0  0
   -4.2290   -2.9310   -0.4290 N   0  0  0  0  0  0  0  0  0  0  0  0
   -3.4050   -3.7620   -1.3170 C   0  0  0  0  0  0  0  0  0  0  0  0
   -2.0220   -3.1660   -1.2510 C   0  0  0  0  0  0  0  0  0  0  0  0
   -2.0440   -2.2310   -0.1030 C   0  0  1  0  0  0  0  0  0  0  0  0
   -1.9340   -0.8910   -0.4600 O   0  0  0  0  0  0  0  0  0  0  0  0
   -0.8060   -0.2890    0.0620 C   0  0  1  0  0  0  0  0  0  0  0  0
    0.0180    0.1960   -1.1390 C   0  0  0  0  0  0  0  0  0  0  0  0
   -0.2920    1.6570   -1.1280 C   0  0  2  0  0  0  0  0  0  0  0  0
    0.5760    2.5470   -1.8550 C   0  0  0  0  0  0  0  0  0  0  0  0
   -0.0210    3.3590   -2.7020 O   0  0  0  0  0  0  0  0  0  0  0  0
    1.9680    2.7220   -1.8380 N   0  0  0  0  0  0  0  0  0  0  0  0
    2.5260    3.7580   -2.7330 C   0  0  0  0  0  0  0  0  0  0  0  0
    3.5000    4.5910   -1.9270 C   0  0  0  0  0  0  0  0  0  0  0  0
    4.6100    3.6430   -1.5460 C   0  0  0  0  0  0  0  0  0  0  0  0
    4.1440    2.5460   -0.6490 C   0  0  2  0  0  0  0  0  0  0  0  0
    5.1520    1.5260   -0.5160 O   0  0  0  0  0  0  0  0  0  0  0  0
    5.7820    1.2530    0.6860 C   0  0  0  0  0  0  0  0  0  0  0  0
    5.4450    1.9330    1.6700 O   0  0  0  0  0  0  0  0  0  0  0  0
    6.8000    0.2100    0.7880 C   0  0  0  0  0  0  0  0  0  0  0  0
    7.4350   -0.0650    1.9740 C   0  0  0  0  0  0  0  0  0  0  0  0
    8.3990   -1.0440    2.1170 C   0  0  0  0  0  0  0  0  0  0  0  0
    9.0770   -1.3240    3.4080 C   0  0  0  0  0  0  0  0  0  0  0  0
   10.2860   -0.6090    3.4150 O   0  0  0  0  0  0  0  0  0  0  0  0
    8.7340   -1.7790    1.0000 C   0  0  0  0  0  0  0  0  0  0  0  0
    8.1230   -1.5390   -0.2130 C   0  0  0  0  0  0  0  0  0  0  0  0
    8.5000   -2.3080   -1.2940 O   0  0  0  0  0  0  0  0  0  0  0  0
    7.9770   -2.1910   -2.5920 C   0  0  0  0  0  0  0  0  0  0  0  0
    7.1530   -0.5400   -0.3120 C   0  0  0  0  0  0  0  0  0  0  0  0
    2.8130    1.9350   -1.0110 C   0  0  0  0  0  0  0  0  0  0  0  0
   -0.5590    1.9320    0.3110 C   0  0  0  0  0  0  0  0  0  0  0  0
   -1.1440    0.7780    0.8290 O   0  0  0  0  0  0  0  0  0  0  0  0
   -3.3300   -2.5370    0.6180 C   0  0  0  0  0  0  0  0  0  0  0  0
   -6.0100   -1.0540    1.6670 S   0  0  0  0  0  0  0  0  0  0  0  0
   -7.5840   -0.3590    2.0100 C   0  0  0  0  0  0  0  0  0  0  0  0
   -7.8770    0.4730    3.2030 C   0  0  0  0  0  0  0  0  0  0  0  0
  1  2  1  0
  2  3  1  0
  3  4  2  0
  3  5  1  0
  5  6  1  0
  5 43  2  0
  6  7  2  0
  7  8  1  0
  7 42  1  0
  8  9  2  0
  8 10  1  0
 10 11  1  0
 10 41  1  0
 11 12  1  0
 12 13  1  0
 13 14  1  6
 13 41  1  0
 15 14  1  6
 15 16  1  0
 15 40  1  0
 16 17  1  0
 17 18  1  1
 17 39  1  0
 18 19  2  0
 18 20  1  0
 20 21  1  0
 20 38  1  0
 21 22  1  0
 22 23  1  0
 23 24  1  0
 24 25  1  6
 24 38  1  0
 25 26  1  0
 26 27  2  0
 26 28  1  0
 28 29  2  0
 28 37  1  0
 29 30  1  0
 30 31  1  0
 30 33  2  0
 31 32  1  0
 33 34  1  0
 34 35  1  0
 34 37  2  0
 35 36  1  0
 39 40  1  0
 42 43  1  0
 43 44  1  0
M  END
