
     RDKit          3D

 44 48  0  0  0  0  0  0  0  0999 V2000
   -6.8160   -2.9710   -1.0310 C   0  0  0  0  0  0  0  0  0  0  0  0
   -5.4230   -3.0150   -1.0320 O   0  0  0  0  0  0  0  0  0  0  0  0
   -4.8930   -2.1000   -1.9350 C   0  0  0  0  0  0  0  0  0  0  0  0
   -3.4160   -2.0740   -2.0060 C   0  0  0  0  0  0  0  0  0  0  0  0
   -2.7170   -1.7620   -0.7720 N   0  0  0  0  0  0  0  0  0  0  0  0
   -2.4100   -0.4020   -0.5200 C   0  0  0  0  0  0  0  0  0  0  0  0
   -3.1580    0.3270    0.5670 C   0  0  2  0  0  0  0  0  0  0  0  0
   -4.5840    0.5840    0.2880 C   0  0  0  0  0  0  0  0  0  0  0  0
   -5.2260    1.6930    1.0810 C   0  0  0  0  0  0  0  0  0  0  0  0
   -4.3180    2.1160    2.0480 O   0  0  0  0  0  0  0  0  0  0  0  0
   -3.2810    2.7220    1.3320 C   0  0  0  0  0  0  0  0  0  0  0  0
   -2.4410    1.7080    0.6010 C   0  0  1  0  0  0  0  0  0  0  0  0
   -1.2110    1.5660    1.2900 O   0  0  0  0  0  0  0  0  0  0  0  0
   -0.1220    2.4100    1.2960 C   0  0  0  0  0  0  0  0  0  0  0  0
    0.2620    2.9270    2.5460 C   0  0  0  0  0  0  0  0  0  0  0  0
    1.3180    3.7900    2.7310 C   0  0  0  0  0  0  0  0  0  0  0  0
    2.0370    4.1660    1.6230 C   0  0  0  0  0  0  0  0  0  0  0  0
    3.1160    5.0340    1.7080 O   0  0  0  0  0  0  0  0  0  0  0  0
    1.6760    3.6680    0.3930 C   0  0  0  0  0  0  0  0  0  0  0  0
    0.6060    2.7860    0.1830 C   0  0  0  0  0  0  0  0  0  0  0  0
    0.4240    2.3440   -1.1450 N   0  0  0  0  0  0  0  0  0  0  0  0
    0.4590    1.0340   -1.6880 C   0  0  0  0  0  0  0  0  0  0  0  0
   -0.2100    0.8230   -2.7330 O   0  0  0  0  0  0  0  0  0  0  0  0
    1.2430   -0.1030   -1.0980 C   0  0  2  0  0  0  0  0  0  0  0  0
    2.6600   -0.0380   -1.5530 C   0  0  0  0  0  0  0  0  0  0  0  0
    3.6330    0.0850   -0.6650 C   0  0  0  0  0  0  0  0  0  0  0  0
    5.0750    0.1640   -0.9230 C   0  0  2  0  0  0  0  0  0  0  0  0
    5.6560    1.1910    0.0410 C   0  0  0  0  0  0  0  0  0  0  0  0
    5.2880    0.5600    1.7220 S   0  0  0  0  0  0  0  0  0  0  0  0
    6.2030   -0.9640    2.0150 C   0  0  0  0  0  0  0  0  0  0  0  0
    5.3620    0.4850   -2.3390 C   0  0  0  0  0  0  0  0  0  0  0  0
    4.1990    0.8250   -3.2010 C   0  0  0  0  0  0  0  0  0  0  0  0
    3.0230   -0.1070   -3.0010 C   0  0  0  0  0  0  0  0  0  0  0  0
    0.6780   -1.3480   -1.5110 O   0  0  0  0  0  0  0  0  0  0  0  0
    0.7580   -2.5370   -0.7770 C   0  0  0  0  0  0  0  0  0  0  0  0
    1.4620   -3.4910   -1.3340 O   0  0  0  0  0  0  0  0  0  0  0  0
    0.1570   -2.8260    0.5170 C   0  0  0  0  0  0  0  0  0  0  0  0
    0.9240   -3.0660    1.6850 C   0  0  0  0  0  0  0  0  0  0  0  0
    0.0230   -3.3150    2.6830 C   0  0  0  0  0  0  0  0  0  0  0  0
    0.3060   -3.6280    4.1260 C   0  0  0  0  0  0  0  0  0  0  0  0
   -1.1840   -3.2450    2.2130 O   0  0  0  0  0  0  0  0  0  0  0  0
   -1.1360   -2.9490    0.8910 C   0  0  0  0  0  0  0  0  0  0  0  0
   -2.3500   -2.8170    0.0960 C   0  0  0  0  0  0  0  0  0  0  0  0
   -3.2210   -3.7650    0.1700 O   0  0  0  0  0  0  0  0  0  0  0  0
  1  2  1  0
  2  3  1  0
  3  4  1  0
  4  5  1  0
  5  6  1  0
  5 43  1  0
  7  6  1  6
  7  8  1  0
  7 12  1  0
  8  9  1  0
  9 10  1  0
 10 11  1  0
 12 11  1  1
 12 13  1  0
 13 14  1  0
 14 15  2  0
 14 20  1  0
 15 16  1  0
 16 17  2  0
 17 18  1  0
 17 19  1  0
 19 20  2  0
 20 21  1  0
 21 22  1  0
 22 23  2  0
 22 24  1  0
 24 25  1  6
 24 34  1  0
 25 26  2  0
 25 33  1  0
 26 27  1  0
 27 28  1  1
 27 31  1  0
 28 29  1  0
 29 30  1  0
 31 32  1  0
 32 33  1  0
 34 35  1  0
 35 36  2  0
 35 37  1  0
 37 38  1  0
 37 42  2  0
 38 39  2  0
 39 40  1  0
 39 41  1  0
 41 42  1  0
 42 43  1  0
 43 44  2  0
M  END
