
     RDKit          3D

 44 48  0  0  0  0  0  0  0  0999 V2000
    6.7440    1.5620   -3.3910 C   0  0  0  0  0  0  0  0  0  0  0  0
    5.6120    1.6570   -2.5440 O   0  0  0  0  0  0  0  0  0  0  0  0
    5.6420    2.3970   -1.3420 C   0  0  0  0  0  0  0  0  0  0  0  0
    6.7330    2.9390   -1.1120 O   0  0  0  0  0  0  0  0  0  0  0  0
    4.4670    2.4770   -0.4960 C   0  0  0  0  0  0  0  0  0  0  0  0
    3.2680    1.8940   -0.9390 C   0  0  0  0  0  0  0  0  0  0  0  0
    2.0970    1.9460   -0.2130 C   0  0  0  0  0  0  0  0  0  0  0  0
    0.8590    1.3640   -0.6640 C   0  0  0  0  0  0  0  0  0  0  0  0
    0.1040    2.0740   -1.3450 O   0  0  0  0  0  0  0  0  0  0  0  0
    0.4330   -0.0060   -0.3740 N   0  0  0  0  0  0  0  0  0  0  0  0
    1.3240   -0.7760    0.3620 C   0  0  0  0  0  0  0  0  0  0  0  0
    2.4340   -0.0790    0.7320 O   0  0  0  0  0  0  0  0  0  0  0  0
    1.4430   -2.1150    0.8670 C   0  0  0  0  0  0  0  0  0  0  0  0
    0.5630   -3.1720    0.3400 C   0  0  1  0  0  0  0  0  0  0  0  0
    0.7090   -3.3330   -1.0330 O   0  0  0  0  0  0  0  0  0  0  0  0
    1.1640   -4.5810   -1.3680 C   0  0  0  0  0  0  0  0  0  0  0  0
    1.3940   -5.0320   -2.5350 O   0  0  0  0  0  0  0  0  0  0  0  0
    1.3450   -5.3240   -0.1460 C   0  0  0  0  0  0  0  0  0  0  0  0
    1.7920   -6.6400    0.0430 C   0  0  0  0  0  0  0  0  0  0  0  0
    1.8850   -7.1360    1.3130 C   0  0  0  0  0  0  0  0  0  0  0  0
    1.5360   -6.3240    2.3840 C   0  0  0  0  0  0  0  0  0  0  0  0
    1.0980   -5.0270    2.1660 C   0  0  0  0  0  0  0  0  0  0  0  0
    1.0020   -4.5220    0.8860 C   0  0  0  0  0  0  0  0  0  0  0  0
   -0.8530   -0.4230   -0.8920 C   0  0  2  0  0  0  0  0  0  0  0  0
   -0.8740   -0.4480   -2.3980 C   0  0  0  0  0  0  0  0  0  0  0  0
   -2.2240   -0.5880   -2.9850 C   0  0  0  0  0  0  0  0  0  0  0  0
   -3.3540   -0.7230   -1.9970 C   0  0  0  0  0  0  0  0  0  0  0  0
   -3.2850    0.3280   -0.9230 C   0  0  1  0  0  0  0  0  0  0  0  0
   -4.2730    0.3110    0.0080 O   0  0  0  0  0  0  0  0  0  0  0  0
   -5.0700    1.3950    0.1090 C   0  0  2  0  0  0  0  0  0  0  0  0
   -5.1030    2.0520    1.4630 C   0  0  0  0  0  0  0  0  0  0  0  0
   -6.4870    2.5580    1.8310 C   0  0  0  0  0  0  0  0  0  0  0  0
   -7.4680    1.4120    1.9670 C   0  0  0  0  0  0  0  0  0  0  0  0
   -7.2400    0.3740    0.8980 C   0  0  0  0  0  0  0  0  0  0  0  0
   -6.4850    1.0210   -0.2530 C   0  0  2  0  0  0  0  0  0  0  0  0
   -6.5920    0.2630   -1.4020 O   0  0  0  0  0  0  0  0  0  0  0  0
   -1.9540    0.3790   -0.2470 C   0  0  0  0  0  0  0  0  0  0  0  0
    2.0880    2.5980    1.0080 C   0  0  0  0  0  0  0  0  0  0  0  0
    1.0330    2.6740    1.7150 O   0  0  0  0  0  0  0  0  0  0  0  0
    3.2290    3.1470    1.4220 N   0  0  0  0  0  0  0  0  0  0  0  0
    4.4040    3.1060    0.7170 C   0  0  0  0  0  0  0  0  0  0  0  0
    5.6190    3.7290    1.3060 C   0  0  0  0  0  0  0  0  0  0  0  0
    6.4870    2.6670    1.9460 C   0  0  0  0  0  0  0  0  0  0  0  0
    7.9750    3.4730    2.6320 S   0  0  0  0  0  0  0  0  0  0  0  0
  1  2  1  0
  2  3  1  0
  3  4  2  0
  3  5  1  0
  5  6  1  0
  5 41  2  0
  6  7  2  0
  7  8  1  0
  7 38  1  0
  8  9  2  0
  8 10  1  0
 10 11  1  0
 24 10  1  6
 11 12  2  0
 11 13  1  0
 14 13  1  1
 14 15  1  0
 14 23  1  0
 15 16  1  0
 16 17  2  0
 16 18  1  0
 18 19  2  0
 18 23  1  0
 19 20  1  0
 20 21  2  0
 21 22  1  0
 22 23  2  0
 24 25  1  0
 24 37  1  0
 25 26  1  0
 26 27  1  0
 27 28  1  0
 28 29  1  1
 28 37  1  0
 30 29  1  1
 30 31  1  0
 30 35  1  0
 31 32  1  0
 32 33  1  0
 33 34  1  0
 34 35  1  0
 35 36  1  6
 38 39  2  0
 38 40  1  0
 40 41  1  0
 41 42  1  0
 42 43  1  0
 43 44  1  0
M  END
