
     RDKit          3D

 44 48  0  0  0  0  0  0  0  0999 V2000
    0.4520   -4.2040    2.8880 C   0  0  0  0  0  0  0  0  0  0  0  0
   -0.6960   -3.3120    2.4860 C   0  0  0  0  0  0  0  0  0  0  0  0
   -0.2450   -2.0170    2.2020 O   0  0  0  0  0  0  0  0  0  0  0  0
    0.6510   -1.6610    1.2190 C   0  0  0  0  0  0  0  0  0  0  0  0
    1.1310   -2.5550    0.4970 O   0  0  0  0  0  0  0  0  0  0  0  0
    1.0530   -0.1630    1.0150 C   0  0  0  0  0  0  0  0  0  0  0  0
   -0.0720    0.2470    0.1710 N   0  0  0  0  0  0  0  0  0  0  0  0
   -1.2090    0.5210    0.8560 C   0  0  0  0  0  0  0  0  0  0  0  0
   -1.1750    0.6470    2.1130 O   0  0  0  0  0  0  0  0  0  0  0  0
   -2.4700    0.6850    0.2700 C   0  0  0  0  0  0  0  0  0  0  0  0
   -3.7960    1.2350    1.2830 S   0  0  0  0  0  0  0  0  0  0  0  0
   -4.7110    0.1070    2.2390 C   0  0  0  0  0  0  0  0  0  0  0  0
   -6.1040   -0.2400    1.9340 C   0  0  2  0  0  0  0  0  0  0  0  0
   -6.5170   -0.8270    0.6650 C   0  0  0  0  0  0  0  0  0  0  0  0
   -7.0530    0.9310    2.2660 C   0  0  2  0  0  0  0  0  0  0  0  0
   -6.6990    2.1540    1.4750 C   0  0  0  0  0  0  0  0  0  0  0  0
   -7.0340    1.1510    3.6290 O   0  0  0  0  0  0  0  0  0  0  0  0
   -2.5300    0.5500   -1.0800 C   0  0  0  0  0  0  0  0  0  0  0  0
   -3.8350    0.5480   -1.8270 C   0  0  0  0  0  0  0  0  0  0  0  0
   -4.3650   -0.8690   -1.8520 C   0  0  0  0  0  0  0  0  0  0  0  0
   -1.3860    0.2790   -1.8130 C   0  0  0  0  0  0  0  0  0  0  0  0
   -1.4880    0.1060   -3.1780 C   0  0  0  0  0  0  0  0  0  0  0  0
   -0.3460   -0.2120   -3.9170 C   0  0  0  0  0  0  0  0  0  0  0  0
    0.8410   -0.3320   -3.2660 C   0  0  0  0  0  0  0  0  0  0  0  0
    1.9570   -0.6430   -4.0050 O   0  0  0  0  0  0  0  0  0  0  0  0
    0.9650   -0.1490   -1.8590 C   0  0  0  0  0  0  0  0  0  0  0  0
    2.3370   -0.2000   -1.4430 C   0  0  0  0  0  0  0  0  0  0  0  0
    2.9670   -1.2600   -1.6160 O   0  0  0  0  0  0  0  0  0  0  0  0
    3.0160    0.9000   -0.8860 N   0  0  0  0  0  0  0  0  0  0  0  0
    2.4470    2.2150   -0.6500 C   0  0  0  0  0  0  0  0  0  0  0  0
    2.8760    2.7040    0.7050 C   0  0  2  0  0  0  0  0  0  0  0  0
    3.6870    3.9870    0.5660 C   0  0  0  0  0  0  0  0  0  0  0  0
    3.5380    1.7850    1.4830 O   0  0  0  0  0  0  0  0  0  0  0  0
    4.6570    1.2900    0.8610 C   0  0  1  0  0  0  0  0  0  0  0  0
    5.2680    0.1820    1.7180 C   0  0  0  0  0  0  0  0  0  0  0  0
    6.6190   -0.2050    1.1630 C   0  0  0  0  0  0  0  0  0  0  0  0
    6.5600   -0.2410   -0.3280 C   0  0  1  0  0  0  0  0  0  0  0  0
    7.4400   -1.3120   -0.9420 C   0  0  0  0  0  0  0  0  0  0  0  0
    5.1020   -0.4400   -0.7870 C   0  0  0  0  0  0  0  0  0  0  0  0
    4.4270    0.8540   -0.5420 C   0  0  1  0  0  0  0  0  0  0  0  0
   -0.1530    0.1380   -1.1520 C   0  0  0  0  0  0  0  0  0  0  0  0
   -0.7200   -0.3430   -5.2650 O   0  0  0  0  0  0  0  0  0  0  0  0
   -2.1120   -0.5830   -5.2440 C   0  0  0  0  0  0  0  0  0  0  0  0
   -2.4950    0.1650   -4.1140 O   0  0  0  0  0  0  0  0  0  0  0  0
  1  2  1  0
  2  3  1  0
  3  4  1  0
  4  5  2  0
  4  6  1  0
  6  7  1  0
  7  8  1  0
  7 41  1  0
  8  9  2  0
  8 10  1  0
 10 11  1  0
 10 18  2  0
 11 12  1  0
 12 13  1  0
 13 14  1  6
 13 15  1  0
 15 16  1  6
 15 17  1  0
 18 19  1  0
 18 21  1  0
 19 20  1  0
 21 22  2  0
 21 41  1  0
 22 23  1  0
 22 44  1  0
 23 24  2  0
 23 42  1  0
 24 25  1  0
 24 26  1  0
 26 27  1  0
 26 41  2  0
 27 28  2  0
 27 29  1  0
 29 30  1  0
 29 40  1  0
 30 31  1  0
 31 32  1  6
 31 33  1  0
 33 34  1  0
 34 35  1  1
 34 40  1  0
 35 36  1  0
 36 37  1  0
 37 38  1  1
 37 39  1  0
 40 39  1  1
 42 43  1  0
 43 44  1  0
M  END
