
     RDKit          3D

 17 19  0  0  0  0  0  0  0  0999 V2000
   -4.5630   -0.0090    0.1380 C   0  0  0  0  0  0  0  0  0  0  0  0
   -3.1740    0.2360   -0.3120 C   0  0  0  0  0  0  0  0  0  0  0  0
   -2.0620    0.2480    0.4160 C   0  0  0  0  0  0  0  0  0  0  0  0
   -2.0570   -0.0030    1.8970 C   0  0  0  0  0  0  0  0  0  0  0  0
   -0.9010    0.5340   -0.4390 C   0  0  1  0  0  0  0  0  0  0  0  0
   -0.4680    1.9830   -0.3670 C   0  0  0  0  0  0  0  0  0  0  0  0
    0.2830   -0.3100   -0.0890 C   0  0  0  0  0  0  0  0  0  0  0  0
    0.1370   -1.6430    0.1350 N   0  0  0  0  0  0  0  0  0  0  0  0
    1.2230   -2.3880    0.4500 C   0  0  0  0  0  0  0  0  0  0  0  0
    2.4400   -1.8200    0.5430 N   0  0  0  0  0  0  0  0  0  0  0  0
    2.6100   -0.4920    0.3240 C   0  0  0  0  0  0  0  0  0  0  0  0
    3.9570    0.1500    0.4240 C   0  0  2  0  0  0  0  0  0  0  0  0
    5.1850   -0.6320    0.2480 C   0  0  0  0  0  0  0  0  0  0  0  0
    4.7370   -0.3240    1.6400 C   0  0  0  0  0  0  0  0  0  0  0  0
    1.5000    0.2020    0.0140 N   0  0  0  0  0  0  0  0  0  0  0  0
   -1.3420    0.2610   -1.8560 C   0  0  0  0  0  0  0  0  0  0  0  0
   -2.8360    0.5210   -1.7550 C   0  0  0  0  0  0  0  0  0  0  0  0
  1  2  1  0
  2  3  2  0
  2 17  1  0
  3  4  1  0
  3  5  1  0
  5  6  1  6
  5  7  1  0
  5 16  1  0
  7  8  2  0
  7 15  1  0
  8  9  1  0
  9 10  2  0
 10 11  1  0
 12 11  1  1
 11 15  2  0
 12 13  1  0
 12 14  1  0
 13 14  1  0
 16 17  1  0
M  END
