
     RDKit          3D

 17 19  0  0  0  0  0  0  0  0999 V2000
    5.9870   -0.7300    1.1610 N   0  0  0  0  0  0  0  0  0  0  0  0
    4.8970   -0.4880    0.8290 C   0  0  0  0  0  0  0  0  0  0  0  0
    3.5450   -0.1770    0.4130 C   0  0  0  0  0  0  0  0  0  0  0  0
    3.2890    0.0550   -0.9250 C   0  0  0  0  0  0  0  0  0  0  0  0
    2.0040    0.3500   -1.3210 C   0  0  0  0  0  0  0  0  0  0  0  0
    0.9490    0.4260   -0.4380 C   0  0  0  0  0  0  0  0  0  0  0  0
   -0.4420    0.7390   -0.8180 C   0  0  2  0  0  0  0  0  0  0  0  0
   -1.1700    1.6110    0.1300 C   0  0  0  0  0  0  0  0  0  0  0  0
   -2.2500    0.9790    0.9390 C   0  0  0  0  0  0  0  0  0  0  0  0
   -3.1600    0.0910    0.1190 C   0  0  0  0  0  0  0  0  0  0  0  0
   -2.3380   -0.8290   -0.7130 C   0  0  0  0  0  0  0  0  0  0  0  0
   -2.6500   -2.0830   -1.1850 C   0  0  0  0  0  0  0  0  0  0  0  0
   -1.5870   -2.5070   -1.8840 N   0  0  0  0  0  0  0  0  0  0  0  0
   -0.6550   -1.5400   -1.8390 C   0  0  0  0  0  0  0  0  0  0  0  0
   -1.1060   -0.4990   -1.1190 N   0  0  0  0  0  0  0  0  0  0  0  0
    1.2320    0.1910    0.8920 C   0  0  0  0  0  0  0  0  0  0  0  0
    2.5210   -0.1100    1.3170 C   0  0  0  0  0  0  0  0  0  0  0  0
  1  2  3  0
  2  3  1  0
  3  4  2  0
  3 17  1  0
  4  5  1  0
  5  6  2  0
  7  6  1  1
  6 16  1  0
  7  8  1  0
  7 15  1  0
  8  9  1  0
  9 10  1  0
 10 11  1  0
 11 12  2  0
 11 15  1  0
 12 13  1  0
 13 14  2  0
 14 15  1  0
 16 17  2  0
M  END
