
     RDKit          3D

 17 19  0  0  0  0  0  0  0  0999 V2000
    5.1880   -2.1770    0.2330 C   0  0  0  0  0  0  0  0  0  0  0  0
    3.7710   -1.8560    0.0500 C   0  0  0  0  0  0  0  0  0  0  0  0
    3.3390   -0.6100    0.0180 C   0  0  0  0  0  0  0  0  0  0  0  0
    1.9100   -0.3260   -0.1660 C   0  0  0  0  0  0  0  0  0  0  0  0
    0.9470   -1.2440   -0.3140 N   0  0  0  0  0  0  0  0  0  0  0  0
   -0.2040   -0.6070   -0.4540 N   0  0  0  0  0  0  0  0  0  0  0  0
    0.0040    0.7280   -0.3990 C   0  0  0  0  0  0  0  0  0  0  0  0
    1.3720    0.9430   -0.2120 C   0  0  0  0  0  0  0  0  0  0  0  0
    1.9950    2.1050   -0.1050 C   0  0  0  0  0  0  0  0  0  0  0  0
    1.3070    3.4010   -0.1700 C   0  0  0  0  0  0  0  0  0  0  0  0
   -1.1270    1.3910   -0.5360 C   0  0  0  0  0  0  0  0  0  0  0  0
   -2.1660    0.4400   -0.6940 N   0  0  0  0  0  0  0  0  0  0  0  0
   -3.5910    0.5850   -0.8810 C   0  0  0  0  0  0  0  0  0  0  0  0
   -4.2710   -0.1760    0.2310 C   0  0  0  0  0  0  0  0  0  0  0  0
   -3.2810   -0.7690    1.2130 C   0  0  0  0  0  0  0  0  0  0  0  0
   -2.2230   -1.5990    0.5420 C   0  0  0  0  0  0  0  0  0  0  0  0
   -1.6120   -0.8940   -0.6480 C   0  0  2  0  0  0  0  0  0  0  0  0
  1  2  1  0
  2  3  2  3
  3  4  1  0
  4  5  2  0
  4  8  1  0
  5  6  1  0
  6  7  1  0
  6 17  1  0
  7  8  1  0
  7 11  2  0
  8  9  2  3
  9 10  1  0
 11 12  1  0
 12 13  1  0
 12 17  1  0
 13 14  1  0
 14 15  1  0
 15 16  1  0
 17 16  1  1
M  END
