
     RDKit          3D

 17 19  0  0  0  0  0  0  0  0999 V2000
   -1.3360   -2.4630   -1.1620 C   0  0  0  0  0  0  0  0  0  0  0  0
   -1.1550   -1.8420    0.2220 C   0  0  1  0  0  0  0  0  0  0  0  0
    0.0820   -2.4030    0.8050 C   0  0  0  0  0  0  0  0  0  0  0  0
    1.2890   -1.6810    0.6590 N   0  0  0  0  0  0  0  0  0  0  0  0
    1.5770   -0.5710    0.0850 C   0  0  0  0  0  0  0  0  0  0  0  0
    3.0070   -0.2470    0.2170 C   0  0  0  0  0  0  0  0  0  0  0  0
    3.7620   -1.0690    0.8570 N   0  0  0  0  0  0  0  0  0  0  0  0
    3.5570    0.9600   -0.3530 C   0  0  0  0  0  0  0  0  0  0  0  0
    2.7300    1.7590   -0.9960 C   0  0  0  0  0  0  0  0  0  0  0  0
    1.3070    1.4520   -1.1370 C   0  0  0  0  0  0  0  0  0  0  0  0
    0.7310    0.3680   -0.6420 C   0  0  0  0  0  0  0  0  0  0  0  0
   -0.7020    0.2550   -0.8970 C   0  0  2  0  0  0  0  0  0  0  0  0
   -1.4570    1.5580   -0.9920 C   0  0  0  0  0  0  0  0  0  0  0  0
   -1.3390    2.3660    0.2860 C   0  0  0  0  0  0  0  0  0  0  0  0
   -1.9230    1.5180    1.4050 C   0  0  0  0  0  0  0  0  0  0  0  0
   -1.1240    0.2200    1.4580 C   0  0  0  0  0  0  0  0  0  0  0  0
   -1.2940   -0.4410    0.2160 N   0  0  0  0  0  0  0  0  0  0  0  0
  2  1  1  6
  2  3  1  0
  2 17  1  0
  3  4  1  0
  4  5  2  0
  5  6  1  0
  5 11  1  0
  6  7  2  0
  6  8  1  0
  8  9  2  0
  9 10  1  0
 10 11  2  0
 11 12  1  0
 12 13  1  1
 12 17  1  0
 13 14  1  0
 14 15  1  0
 15 16  1  0
 16 17  1  0
M  END
