
     RDKit          3D

 17 18  0  0  0  0  0  0  0  0999 V2000
   -4.8640   -2.4110    0.0160 N   0  0  0  0  0  0  0  0  0  0  0  0
   -3.7710   -2.0080    0.0620 C   0  0  0  0  0  0  0  0  0  0  0  0
   -2.5560   -1.5630    0.1340 C   0  0  0  0  0  0  0  0  0  0  0  0
   -1.8200   -2.0490    1.2820 C   0  0  0  0  0  0  0  0  0  0  0  0
   -0.5070   -1.6720    1.5940 C   0  0  0  0  0  0  0  0  0  0  0  0
    0.5110   -0.9250    1.2640 C   0  0  0  0  0  0  0  0  0  0  0  0
    0.4180   -0.0020    0.0270 C   0  0  0  0  0  0  0  0  0  0  0  0
    1.3420    1.0570    0.0960 C   0  0  0  0  0  0  0  0  0  0  0  0
    2.5300    0.7900    0.7710 C   0  0  0  0  0  0  0  0  0  0  0  0
    3.5800    1.8030    0.9680 C   0  0  0  0  0  0  0  0  0  0  0  0
    4.0890    1.4900    2.3790 N   0  0  0  0  0  0  0  0  0  0  0  0
   -0.6060   -0.0020   -0.7190 C   0  0  0  0  0  0  0  0  0  0  0  0
   -0.3730    0.9880   -1.9060 C   0  0  0  0  0  0  0  0  0  0  0  0
   -1.2920    0.9700   -2.7440 C   0  0  0  0  0  0  0  0  0  0  0  0
   -2.5200    0.2750   -2.8900 C   0  0  0  0  0  0  0  0  0  0  0  0
   -2.8010   -0.5840   -1.8930 C   0  0  0  0  0  0  0  0  0  0  0  0
   -1.8490   -0.7240   -0.8150 N   0  0  0  0  0  0  0  0  0  0  0  0
  1  2  3  0
  2  3  1  0
  3  4  2  0
  3 17  1  0
  4  5  1  0
  5  6  2  0
  6  7  1  0
  7  8  1  0
  7 12  2  0
  8  9  2  3
  9 10  1  0
 10 11  1  0
 12 13  1  0
 12 17  1  0
 13 14  2  0
 14 15  1  0
 15 16  2  0
 16 17  1  0
M  END
