
     RDKit          3D

 16 18  0  0  0  0  0  0  0  0999 V2000
   -2.1200    2.0400    0.8300 C   0  0  0  0  0  0  0  0  0  0  0  0
   -1.3680    0.9580    1.0940 C   0  0  0  0  0  0  0  0  0  0  0  0
   -1.7260   -0.0880    0.1760 C   0  0  2  0  0  0  0  0  0  0  0  0
   -0.7470   -0.5770   -0.7430 N   0  0  0  0  0  0  0  0  0  0  0  0
   -1.1840   -2.0070   -0.8820 C   0  0  0  0  0  0  0  0  0  0  0  0
   -0.8760   -2.4030    0.5500 C   0  0  0  0  0  0  0  0  0  0  0  0
    0.1970   -1.7070    0.9600 C   0  0  0  0  0  0  0  0  0  0  0  0
    0.5410   -0.8960   -0.2120 C   0  0  2  0  0  0  0  0  0  0  0  0
    1.5400    0.1320   -0.1020 C   0  0  0  0  0  0  0  0  0  0  0  0
    2.8720   -0.2470   -0.2790 C   0  0  0  0  0  0  0  0  0  0  0  0
    3.9120    0.6560   -0.2090 C   0  0  0  0  0  0  0  0  0  0  0  0
    3.5510    1.9620    0.0460 C   0  0  0  0  0  0  0  0  0  0  0  0
    2.2740    2.2870    0.2090 N   0  0  0  0  0  0  0  0  0  0  0  0
    1.3260    1.4190    0.1370 N   0  0  0  0  0  0  0  0  0  0  0  0
   -2.8140    0.5150   -0.6840 C   0  0  0  0  0  0  0  0  0  0  0  0
   -3.0150    1.7510   -0.2770 C   0  0  0  0  0  0  0  0  0  0  0  0
  1  2  2  0
  1 16  1  0
  2  3  1  0
  3  4  1  6
  3 15  1  0
  4  5  1  0
  4  8  1  0
  5  6  1  0
  6  7  2  0
  7  8  1  0
  8  9  1  1
  9 10  2  0
  9 14  1  0
 10 11  1  0
 11 12  2  0
 12 13  1  0
 13 14  2  0
 15 16  2  0
M  END
