
     RDKit          3D

 25 27  0  0  0  0  0  0  0  0999 V2000
   -6.1380   -1.1000    1.1420 C   0  0  0  0  0  0  0  0  0  0  0  0
   -6.1930    0.1290    0.4690 O   0  0  0  0  0  0  0  0  0  0  0  0
   -5.0190    0.6820   -0.0030 C   0  0  0  0  0  0  0  0  0  0  0  0
   -5.0260    1.8760   -0.6630 C   0  0  0  0  0  0  0  0  0  0  0  0
   -3.8840    2.4520   -1.1440 C   0  0  0  0  0  0  0  0  0  0  0  0
   -2.6950    1.7990   -0.9510 C   0  0  0  0  0  0  0  0  0  0  0  0
   -2.6230    0.5750   -0.2830 C   0  0  0  0  0  0  0  0  0  0  0  0
   -1.3080   -0.0700   -0.1130 C   0  0  0  0  0  0  0  0  0  0  0  0
   -0.1520    0.3910   -0.5320 O   0  0  0  0  0  0  0  0  0  0  0  0
    0.8280   -0.4120   -0.2260 C   0  0  0  0  0  0  0  0  0  0  0  0
    2.2090   -0.3760   -0.4420 C   0  0  0  0  0  0  0  0  0  0  0  0
    3.0580   -1.3660   -0.0130 C   0  0  0  0  0  0  0  0  0  0  0  0
    4.4610   -1.3770   -0.1970 N   0  0  0  0  0  0  0  0  0  0  0  0
    5.1290   -0.2710   -0.7380 C   0  0  0  0  0  0  0  0  0  0  0  0
    6.4360   -0.4870   -1.8790 Cl  0  0  0  0  0  0  0  0  0  0  0  0
    4.7900    0.9080   -0.3900 N   0  0  0  0  0  0  0  0  0  0  0  0
    5.4600    2.0200   -0.9340 C   0  0  0  0  0  0  0  0  0  0  0  0
    6.8360    2.1960   -0.7390 N   0  0  0  0  0  0  0  0  0  0  0  0
    4.6180    3.1070   -1.7970 S   0  0  0  0  0  0  0  0  0  0  0  0
    2.4470   -2.4360    0.6650 C   0  0  0  0  0  0  0  0  0  0  0  0
    1.0940   -2.4870    0.8850 C   0  0  0  0  0  0  0  0  0  0  0  0
    0.2740   -1.4740    0.4410 C   0  0  0  0  0  0  0  0  0  0  0  0
   -1.0540   -1.2290    0.4930 N   0  0  0  0  0  0  0  0  0  0  0  0
   -1.9170   -2.0940    1.0950 O   0  0  0  0  0  0  0  0  0  0  0  0
   -3.7900    0.0390    0.1790 C   0  0  0  0  0  0  0  0  0  0  0  0
  1  2  1  0
  2  3  1  0
  3  4  2  0
  3 25  1  0
  4  5  1  0
  5  6  2  0
  6  7  1  0
  7  8  1  0
  7 25  2  0
  8  9  1  0
  8 23  2  0
  9 10  1  0
 10 11  2  0
 10 22  1  0
 11 12  1  0
 12 13  1  0
 12 20  2  0
 13 14  1  0
 14 15  1  0
 14 16  2  3
 16 17  1  0
 17 18  1  0
 17 19  2  0
 20 21  1  0
 21 22  2  0
 22 23  1  0
 23 24  1  0
M  CHG  2  23   1  24  -1
M  END
