
     RDKit          3D

 25 27  0  0  0  0  0  0  0  0999 V2000
   -6.9390    0.7530   -0.2170 N   0  0  0  0  0  0  0  0  0  0  0  0
   -5.5250    0.5550   -0.1180 C   0  0  0  0  0  0  0  0  0  0  0  0
   -4.6680    1.5660   -0.4470 C   0  0  0  0  0  0  0  0  0  0  0  0
   -3.2910    1.3320   -0.3360 C   0  0  0  0  0  0  0  0  0  0  0  0
   -2.7600    0.1400    0.0870 C   0  0  0  0  0  0  0  0  0  0  0  0
   -1.3750   -0.0780    0.1350 N   0  0  0  0  0  0  0  0  0  0  0  0
   -0.3350    0.8610   -0.0330 C   0  0  0  0  0  0  0  0  0  0  0  0
   -0.5990    2.0490   -0.2520 O   0  0  0  0  0  0  0  0  0  0  0  0
    1.0890    0.5040    0.0400 C   0  0  0  0  0  0  0  0  0  0  0  0
    1.5610   -0.7810    0.0650 C   0  0  0  0  0  0  0  0  0  0  0  0
    2.9210   -1.0420    0.1440 C   0  0  0  0  0  0  0  0  0  0  0  0
    3.8530   -0.0340    0.2010 C   0  0  0  0  0  0  0  0  0  0  0  0
    5.2840   -0.3370    0.2880 C   0  0  0  0  0  0  0  0  0  0  0  0
    6.0080   -1.4530    0.3360 C   0  0  0  0  0  0  0  0  0  0  0  0
    7.3350   -1.2760    0.4170 N   0  0  0  0  0  0  0  0  0  0  0  0
    7.9040   -0.3460    0.4490 C   0  0  0  0  0  0  0  0  0  0  0  0
    6.5660    0.9840    0.3640 S   0  0  0  0  0  0  0  0  0  0  0  0
    3.3960    1.2760    0.1760 C   0  0  0  0  0  0  0  0  0  0  0  0
    4.5180    2.6040    0.2450 Cl  0  0  0  0  0  0  0  0  0  0  0  0
    2.0510    1.5070    0.0980 C   0  0  0  0  0  0  0  0  0  0  0  0
   -3.6420   -0.8570    0.4120 C   0  0  0  0  0  0  0  0  0  0  0  0
   -3.2030   -2.1250    0.8650 N   0  0  0  0  0  0  0  0  0  0  0  0
   -2.2210   -2.2720    1.5690 O   0  0  0  0  0  0  0  0  0  0  0  0
   -4.0080   -3.2060    0.4800 O   0  0  0  0  0  0  0  0  0  0  0  0
   -5.0280   -0.6280    0.3010 C   0  0  0  0  0  0  0  0  0  0  0  0
  1  2  1  0
  2  3  2  0
  2 25  1  0
  3  4  1  0
  4  5  2  0
  5  6  1  0
  5 21  1  0
  6  7  1  0
  7  8  2  0
  7  9  1  0
  9 10  2  0
  9 20  1  0
 10 11  1  0
 11 12  2  0
 12 13  1  0
 12 18  1  0
 13 14  2  0
 13 17  1  0
 14 15  1  0
 15 16  2  0
 16 17  1  0
 18 19  1  0
 18 20  2  0
 21 22  1  0
 21 25  2  0
 22 23  2  0
 22 24  1  0
M  CHG  2  22   1  24  -1
M  END
