
     RDKit          3D

 25 27  0  0  0  0  0  0  0  0999 V2000
    6.4370    1.1430    1.3030 C   0  0  0  0  0  0  0  0  0  0  0  0
    5.1580    0.5660    0.8140 C   0  0  0  0  0  0  0  0  0  0  0  0
    4.4500    1.1450   -0.2180 C   0  0  0  0  0  0  0  0  0  0  0  0
    3.2590    0.6240   -0.6870 C   0  0  0  0  0  0  0  0  0  0  0  0
    2.7200   -0.5190   -0.1290 C   0  0  0  0  0  0  0  0  0  0  0  0
    1.4680   -1.0920   -0.5850 C   0  0  0  0  0  0  0  0  0  0  0  0
    0.3910   -0.4210   -0.9190 C   0  0  0  0  0  0  0  0  0  0  0  0
   -0.7750   -1.1430   -1.3550 N   0  0  0  0  0  0  0  0  0  0  0  0
   -2.1000   -0.7330   -0.9590 C   0  0  0  0  0  0  0  0  0  0  0  0
   -2.2340    0.3420   -0.1700 N   0  0  0  0  0  0  0  0  0  0  0  0
   -3.5010    0.7750    0.2390 C   0  0  0  0  0  0  0  0  0  0  0  0
   -3.7110    1.8010    0.9980 N   0  0  0  0  0  0  0  0  0  0  0  0
   -4.9470    2.1770    1.3630 C   0  0  0  0  0  0  0  0  0  0  0  0
   -5.4740    3.0480    2.0340 O   0  0  0  0  0  0  0  0  0  0  0  0
   -5.9400    0.8680    0.4900 S   0  0  0  0  0  0  0  0  0  0  0  0
   -4.5030    0.0070   -0.2420 C   0  0  0  0  0  0  0  0  0  0  0  0
   -4.4060   -1.1000   -1.0510 C   0  0  0  0  0  0  0  0  0  0  0  0
   -5.6160   -1.8160   -1.4790 C   0  0  0  0  0  0  0  0  0  0  0  0
   -3.1320   -1.4960   -1.4340 C   0  0  0  0  0  0  0  0  0  0  0  0
   -2.9250   -2.8670   -2.4420 Cl  0  0  0  0  0  0  0  0  0  0  0  0
    0.4060    0.9880   -0.8310 N   0  0  0  0  0  0  0  0  0  0  0  0
    0.0780    1.6670   -1.8130 O   0  0  0  0  0  0  0  0  0  0  0  0
    0.7720    1.6090    0.3300 O   0  0  0  0  0  0  0  0  0  0  0  0
    3.4300   -1.1140    0.9190 C   0  0  0  0  0  0  0  0  0  0  0  0
    4.6080   -0.5740    1.3610 C   0  0  0  0  0  0  0  0  0  0  0  0
  1  2  1  0
  2  3  2  0
  2 25  1  0
  3  4  1  0
  4  5  2  0
  5  6  1  0
  5 24  1  0
  6  7  2  3
  7  8  1  0
  7 21  1  0
  8  9  1  0
  9 10  2  0
  9 19  1  0
 10 11  1  0
 11 12  1  0
 11 16  2  0
 12 13  1  0
 13 14  2  0
 13 15  1  0
 15 16  1  0
 16 17  1  0
 17 18  1  0
 17 19  2  0
 19 20  1  0
 21 22  2  0
 21 23  1  0
 24 25  2  0
M  CHG  2  21   1  23  -1
M  END
