
     RDKit          3D

 24 26  0  0  0  0  0  0  0  0999 V2000
    3.9560    2.1140   -1.2650 C   0  0  0  0  0  0  0  0  0  0  0  0
    4.1270    0.6470   -0.9380 C   0  0  0  0  0  0  0  0  0  0  0  0
    3.3520    0.2520    0.2800 C   0  0  0  0  0  0  0  0  0  0  0  0
    3.8450    0.6110    1.4950 C   0  0  0  0  0  0  0  0  0  0  0  0
    5.3630    1.5160    1.5820 Cl  0  0  0  0  0  0  0  0  0  0  0  0
    3.2470    0.3230    2.7180 C   0  0  0  0  0  0  0  0  0  0  0  0
    2.0600   -0.3860    2.6370 C   0  0  0  0  0  0  0  0  0  0  0  0
    1.5490   -0.7560    1.4030 C   0  0  0  0  0  0  0  0  0  0  0  0
    0.1160   -1.6350    0.9110 S   0  0  0  0  0  0  0  0  0  0  0  0
    0.5160   -1.4980   -0.9340 C   0  0  0  0  0  0  0  0  0  0  0  0
   -0.3720   -2.0750   -1.8730 N   0  0  0  0  0  0  0  0  0  0  0  0
   -1.5800   -2.7710   -1.5050 C   0  0  0  0  0  0  0  0  0  0  0  0
   -2.5170   -1.8580   -0.7710 C   0  0  0  0  0  0  0  0  0  0  0  0
   -3.6210   -2.3770   -0.1400 C   0  0  0  0  0  0  0  0  0  0  0  0
   -4.4730   -1.5190    0.5260 C   0  0  0  0  0  0  0  0  0  0  0  0
   -4.2530   -0.1750    0.5770 N   0  0  0  0  0  0  0  0  0  0  0  0
   -3.1940    0.3490   -0.0230 C   0  0  0  0  0  0  0  0  0  0  0  0
   -2.9050    1.7550   -0.0100 N   0  0  0  0  0  0  0  0  0  0  0  0
   -3.7450    2.6670    0.6510 C   0  0  0  0  0  0  0  0  0  0  0  0
   -4.7840    2.2510    1.2510 O   0  0  0  0  0  0  0  0  0  0  0  0
   -3.4590    4.0190    0.6590 O   0  0  0  0  0  0  0  0  0  0  0  0
   -2.3210   -0.4990   -0.7020 C   0  0  0  0  0  0  0  0  0  0  0  0
    1.5160   -0.8990   -0.8550 N   0  0  0  0  0  0  0  0  0  0  0  0
    2.1530   -0.4630    0.2060 C   0  0  0  0  0  0  0  0  0  0  0  0
  1  2  1  0
  2  3  1  0
  3  4  2  0
  3 24  1  0
  4  5  1  0
  4  6  1  0
  6  7  2  0
  7  8  1  0
  8  9  1  0
  8 24  2  0
  9 10  1  0
 10 11  1  0
 10 23  2  0
 11 12  1  0
 12 13  1  0
 13 14  2  0
 13 22  1  0
 14 15  1  0
 15 16  2  0
 16 17  1  0
 17 18  1  0
 17 22  2  0
 18 19  1  0
 19 20  2  0
 19 21  1  0
 23 24  1  0
M  END
