
     RDKit          3D

 25 27  0  0  0  0  0  0  0  0999 V2000
   -5.8940   -0.6660   -1.3490 N   0  0  0  0  0  0  0  0  0  0  0  0
   -4.7190   -0.4550   -0.5840 C   0  0  0  0  0  0  0  0  0  0  0  0
   -4.5370   -1.3090    0.4870 C   0  0  0  0  0  0  0  0  0  0  0  0
   -3.3870   -1.1030    1.2350 C   0  0  0  0  0  0  0  0  0  0  0  0
   -3.0610   -2.1450    2.6260 Cl  0  0  0  0  0  0  0  0  0  0  0  0
   -2.4800   -0.1240    0.9480 C   0  0  0  0  0  0  0  0  0  0  0  0
   -1.3370    0.0060    1.7710 N   0  0  0  0  0  0  0  0  0  0  0  0
   -0.1170   -0.6620    1.5380 C   0  0  0  0  0  0  0  0  0  0  0  0
   -0.0020   -1.4140    0.5660 O   0  0  0  0  0  0  0  0  0  0  0  0
    0.9670   -0.4700    2.4150 N   0  0  0  0  0  0  0  0  0  0  0  0
    2.2510   -1.0930    2.2780 C   0  0  0  0  0  0  0  0  0  0  0  0
    3.0970   -0.4960    1.2430 C   0  0  0  0  0  0  0  0  0  0  0  0
    3.1540   -1.0420   -0.0130 C   0  0  0  0  0  0  0  0  0  0  0  0
    3.9520   -0.4900   -1.0210 C   0  0  0  0  0  0  0  0  0  0  0  0
    4.7100    0.6330   -0.7650 C   0  0  0  0  0  0  0  0  0  0  0  0
    5.5340    1.2120   -1.7930 N   0  0  0  0  0  0  0  0  0  0  0  0
    5.5870    0.7140   -2.9300 O   0  0  0  0  0  0  0  0  0  0  0  0
    6.2810    2.3310   -1.5390 O   0  0  0  0  0  0  0  0  0  0  0  0
    4.6550    1.1820    0.4920 C   0  0  0  0  0  0  0  0  0  0  0  0
    3.8570    0.6270    1.4960 C   0  0  0  0  0  0  0  0  0  0  0  0
   -2.7060    0.7350   -0.1650 C   0  0  0  0  0  0  0  0  0  0  0  0
   -1.8260    1.7420   -0.5050 C   0  0  0  0  0  0  0  0  0  0  0  0
   -2.6000    2.4700   -1.9410 S   0  0  0  0  0  0  0  0  0  0  0  0
   -3.9710    1.4370   -1.9870 C   0  0  0  0  0  0  0  0  0  0  0  0
   -3.8050    0.5610   -0.9060 C   0  0  0  0  0  0  0  0  0  0  0  0
  1  2  1  0
  2  3  2  0
  2 25  1  0
  3  4  1  0
  4  5  1  0
  4  6  2  0
  6  7  1  0
  6 21  1  0
  7  8  1  0
  8  9  2  0
  8 10  1  0
 10 11  1  0
 11 12  1  0
 12 13  2  0
 12 20  1  0
 13 14  1  0
 14 15  2  0
 15 16  1  0
 15 19  1  0
 16 17  2  0
 16 18  1  0
 19 20  2  0
 21 22  2  0
 21 25  1  0
 22 23  1  0
 23 24  1  0
 24 25  2  0
M  CHG  2  16   1  18  -1
M  END
