
     RDKit          3D

 36 40  0  0  0  0  0  0  0  0999 V2000
   -0.1720    6.7640    3.0700 C   0  0  0  0  0  0  0  0  0  0  0  0
   -0.5650    5.7050    2.2120 O   0  0  0  0  0  0  0  0  0  0  0  0
    0.2390    4.6520    1.9070 C   0  0  0  0  0  0  0  0  0  0  0  0
    1.4010    4.6350    2.4440 O   0  0  0  0  0  0  0  0  0  0  0  0
   -0.1270    3.5540    1.0270 C   0  0  0  0  0  0  0  0  0  0  0  0
   -1.3140    3.4650    0.3330 C   0  0  0  0  0  0  0  0  0  0  0  0
   -1.6230    2.3980   -0.4960 C   0  0  0  0  0  0  0  0  0  0  0  0
   -0.7870    1.3560   -0.7020 C   0  0  0  0  0  0  0  0  0  0  0  0
   -1.0620    0.1410   -1.4580 C   0  0  2  0  0  0  0  0  0  0  0  0
   -1.2380    0.3530   -2.9440 C   0  0  0  0  0  0  0  0  0  0  0  0
   -2.3220    1.2580   -3.3180 C   0  0  0  0  0  0  0  0  0  0  0  0
   -3.6710    0.8370   -2.8030 C   0  0  0  0  0  0  0  0  0  0  0  0
   -3.5090   -0.1770   -1.7090 C   0  0  0  0  0  0  0  0  0  0  0  0
   -2.3960   -0.5030   -1.1050 C   0  0  0  0  0  0  0  0  0  0  0  0
   -2.4410   -1.5740   -0.1460 C   0  0  1  0  0  0  0  0  0  0  0  0
   -1.5160   -1.6430    1.0120 C   0  0  0  0  0  0  0  0  0  0  0  0
   -1.9410   -3.0710    1.5290 C   0  0  0  0  0  0  0  0  0  0  0  0
   -3.3840   -3.2390    1.0910 C   0  0  0  0  0  0  0  0  0  0  0  0
   -3.7330   -1.8080    0.5870 C   0  0  1  0  0  0  0  0  0  0  0  0
   -3.9440   -0.9750    1.8130 C   0  0  0  0  0  0  0  0  0  0  0  0
   -4.8550   -1.8320   -0.3720 C   0  0  0  0  0  0  0  0  0  0  0  0
   -4.7640   -0.8280   -1.3760 N   0  0  0  0  0  0  0  0  0  0  0  0
    0.4380    1.4330   -0.0020 C   0  0  0  0  0  0  0  0  0  0  0  0
    1.4740    0.4440   -0.1230 N   0  0  0  0  0  0  0  0  0  0  0  0
    2.8260    0.6300    0.1770 C   0  0  0  0  0  0  0  0  0  0  0  0
    3.2410    1.7750    0.5930 O   0  0  0  0  0  0  0  0  0  0  0  0
    3.8360   -0.4360    0.0360 C   0  0  0  0  0  0  0  0  0  0  0  0
    3.4790   -1.7300   -0.1450 C   0  0  0  0  0  0  0  0  0  0  0  0
    4.4870   -2.6920   -0.2620 C   0  0  0  0  0  0  0  0  0  0  0  0
    5.8170   -2.3730   -0.2030 C   0  0  0  0  0  0  0  0  0  0  0  0
    6.8390   -3.3880   -0.3070 C   0  0  0  0  0  0  0  0  0  0  0  0
    8.2650   -3.0570   -0.3650 C   0  0  0  0  0  0  0  0  0  0  0  0
    6.5100   -4.6260   -0.3580 O   0  0  0  0  0  0  0  0  0  0  0  0
    6.1660   -1.0400   -0.0140 C   0  0  0  0  0  0  0  0  0  0  0  0
    5.1790   -0.1020    0.1020 C   0  0  0  0  0  0  0  0  0  0  0  0
    0.7430    2.4920    0.8260 C   0  0  0  0  0  0  0  0  0  0  0  0
  1  2  1  0
  2  3  1  0
  3  4  2  0
  3  5  1  0
  5  6  2  0
  5 36  1  0
  6  7  1  0
  7  8  2  0
  9  8  1  1
  8 23  1  0
  9 10  1  0
  9 14  1  0
 10 11  1  0
 11 12  1  0
 12 13  1  0
 13 14  2  0
 13 22  1  0
 14 15  1  0
 15 16  1  1
 15 19  1  0
 16 17  1  0
 17 18  1  0
 18 19  1  0
 19 20  1  1
 19 21  1  0
 21 22  1  0
 23 24  1  0
 23 36  2  0
 24 25  1  0
 25 26  2  0
 25 27  1  0
 27 28  2  0
 27 35  1  0
 28 29  1  0
 29 30  2  0
 30 31  1  0
 30 34  1  0
 31 32  1  0
 31 33  2  0
 34 35  2  0
M  END
