
     RDKit          3D

 37 40  0  0  0  0  0  0  0  0999 V2000
   -1.2800    2.2990   -2.8080 C   0  0  0  0  0  0  0  0  0  0  0  0
   -1.4580    2.4550   -1.5550 O   0  0  0  0  0  0  0  0  0  0  0  0
   -1.6640    2.6220   -0.2970 C   0  0  0  0  0  0  0  0  0  0  0  0
   -2.7270    3.2550    0.4690 C   0  0  0  0  0  0  0  0  0  0  0  0
   -2.6410    3.4610    1.8230 C   0  0  0  0  0  0  0  0  0  0  0  0
   -1.5300    3.0830    2.5890 C   0  0  0  0  0  0  0  0  0  0  0  0
   -0.4820    2.4100    1.8640 C   0  0  0  0  0  0  0  0  0  0  0  0
   -0.6560    2.2480    0.5870 C   0  0  0  0  0  0  0  0  0  0  0  0
    0.1970    0.9850    0.1550 C   0  0  2  0  0  0  0  0  0  0  0  0
    0.3370    0.7600   -1.1540 N   0  0  0  0  0  0  0  0  0  0  0  0
    1.2480   -0.4920   -1.8450 S   0  0  2  0  0  0  0  0  0  0  0  0
    0.8340   -0.7940   -3.2190 O   0  0  0  0  0  0  0  0  0  0  0  0
    0.8460   -1.8160   -1.0520 O   0  0  0  0  0  0  0  0  0  0  0  0
    2.9520   -0.5070   -1.6170 C   0  0  0  0  0  0  0  0  0  0  0  0
    3.6620   -1.5340   -2.1280 C   0  0  0  0  0  0  0  0  0  0  0  0
    4.9420   -1.8940   -1.7340 C   0  0  0  0  0  0  0  0  0  0  0  0
    5.4860   -1.1040   -0.7280 C   0  0  0  0  0  0  0  0  0  0  0  0
    6.6950   -1.5470   -0.1730 N   0  0  0  0  0  0  0  0  0  0  0  0
    7.1660   -0.8600    0.9180 C   0  0  0  0  0  0  0  0  0  0  0  0
    8.2470   -1.3270    1.3440 O   0  0  0  0  0  0  0  0  0  0  0  0
    6.4930    0.1990    1.4290 C   0  0  0  0  0  0  0  0  0  0  0  0
    5.3010    0.6440    0.8910 C   0  0  0  0  0  0  0  0  0  0  0  0
    4.8120   -0.0680   -0.2340 C   0  0  0  0  0  0  0  0  0  0  0  0
    3.5440    0.3070   -0.6020 C   0  0  0  0  0  0  0  0  0  0  0  0
   -0.8400   -0.0740    0.7230 C   0  0  0  0  0  0  0  0  0  0  0  0
   -0.3980   -0.7740    1.6860 O   0  0  0  0  0  0  0  0  0  0  0  0
   -2.1080   -0.2150    0.2660 N   0  0  0  0  0  0  0  0  0  0  0  0
   -2.3610   -0.5000   -1.1820 C   0  0  0  0  0  0  0  0  0  0  0  0
   -2.1070   -2.0220   -1.3100 C   0  0  0  0  0  0  0  0  0  0  0  0
   -2.3910   -2.5860   -2.3680 O   0  0  0  0  0  0  0  0  0  0  0  0
   -1.5760   -2.6940   -0.2590 O   0  0  0  0  0  0  0  0  0  0  0  0
   -3.3050   -0.2030    1.0420 C   0  0  0  0  0  0  0  0  0  0  0  0
   -4.1550   -1.2890    1.2660 C   0  0  0  0  0  0  0  0  0  0  0  0
   -5.0680   -1.4670    2.2190 C   0  0  0  0  0  0  0  0  0  0  0  0
   -5.9240   -2.5120    2.1820 C   0  0  0  0  0  0  0  0  0  0  0  0
   -5.8370   -3.4080    1.1010 C   0  0  0  0  0  0  0  0  0  0  0  0
   -4.4530   -2.6580    0.1700 S   0  0  0  0  0  0  0  0  0  0  0  0
  1  2  1  0
  2  3  1  0
  3  4  2  0
  3  8  1  0
  4  5  1  0
  5  6  2  0
  6  7  1  0
  7  8  2  0
  8  9  1  0
  9 10  1  6
  9 25  1  0
 11 10  1  1
 11 12  2  0
 11 13  2  0
 11 14  1  0
 14 15  2  0
 14 24  1  0
 15 16  1  0
 16 17  2  0
 17 18  1  0
 17 23  1  0
 18 19  1  0
 19 20  2  0
 19 21  1  0
 21 22  2  0
 22 23  1  0
 23 24  2  0
 25 26  2  0
 25 27  1  0
 27 28  1  0
 27 32  1  0
 28 29  1  0
 29 30  2  0
 29 31  1  0
 32 33  1  0
 33 34  2  0
 33 37  1  0
 34 35  1  0
 35 36  2  0
 36 37  1  0
M  END
