
     RDKit          3D

 42 43  0  0  0  0  0  0  0  0999 V2000
    6.4410   -2.6620    0.1220 C   0  0  0  0  0  0  0  0  0  0  0  0
    5.6320   -1.9820   -0.6330 C   0  0  0  0  0  0  0  0  0  0  0  0
    4.7460   -2.8280   -1.5430 C   0  0  0  0  0  0  0  0  0  0  0  0
    3.4170   -2.5280   -1.1900 O   0  0  0  0  0  0  0  0  0  0  0  0
    2.8960   -2.7060    0.0640 C   0  0  0  0  0  0  0  0  0  0  0  0
    3.6290   -3.1580    0.9740 O   0  0  0  0  0  0  0  0  0  0  0  0
    1.4790   -2.3750    0.3620 C   0  0  0  0  0  0  0  0  0  0  0  0
    1.0660   -2.5760    1.5970 C   0  0  0  0  0  0  0  0  0  0  0  0
   -0.3030   -2.2800    1.9720 C   0  0  0  0  0  0  0  0  0  0  0  0
   -1.1660   -1.7990    1.0690 C   0  0  0  0  0  0  0  0  0  0  0  0
   -0.8140   -1.5430   -0.3120 C   0  0  0  0  0  0  0  0  0  0  0  0
   -1.5960   -1.0960   -1.2590 C   0  0  0  0  0  0  0  0  0  0  0  0
   -2.9660   -0.7430   -1.2220 C   0  0  0  0  0  0  0  0  0  0  0  0
   -3.4580   -0.3170   -2.3550 O   0  0  0  0  0  0  0  0  0  0  0  0
   -3.9330   -0.7800   -0.1120 C   0  0  0  0  0  0  0  0  0  0  0  0
   -5.3050   -0.3110   -0.5930 C   0  0  0  0  0  0  0  0  0  0  0  0
   -5.4470   -0.0030   -1.7710 O   0  0  0  0  0  0  0  0  0  0  0  0
   -6.3800   -0.2410    0.3180 N   0  0  0  0  0  0  0  0  0  0  0  0
   -7.7040    0.1640    0.0190 C   0  0  0  0  0  0  0  0  0  0  0  0
   -8.1570    0.5010   -1.2120 C   0  0  0  0  0  0  0  0  0  0  0  0
   -9.4970    0.8780   -1.4120 C   0  0  0  0  0  0  0  0  0  0  0  0
   -9.9590    1.2210   -2.6700 O   0  0  0  0  0  0  0  0  0  0  0  0
   -9.0560    1.1880   -3.7610 C   0  0  0  0  0  0  0  0  0  0  0  0
  -10.3520    0.9010   -0.3400 C   0  0  0  0  0  0  0  0  0  0  0  0
  -11.6620    1.2740   -0.5680 O   0  0  0  0  0  0  0  0  0  0  0  0
  -12.5710    1.3080    0.5220 C   0  0  0  0  0  0  0  0  0  0  0  0
   -9.9180    0.5620    0.9300 C   0  0  0  0  0  0  0  0  0  0  0  0
   -8.6050    0.2000    1.0900 C   0  0  0  0  0  0  0  0  0  0  0  0
   -8.1750   -0.1440    2.4010 N   0  0  0  0  0  0  0  0  0  0  0  0
    0.6060   -1.8640   -0.6440 C   0  0  0  0  0  0  0  0  0  0  0  0
    1.0290   -1.6850   -1.8020 O   0  0  0  0  0  0  0  0  0  0  0  0
    5.4800   -0.5530   -0.7570 C   0  0  0  0  0  0  0  0  0  0  0  0
    6.1730    0.3630   -0.1140 O   0  0  0  0  0  0  0  0  0  0  0  0
    7.4380    0.7100   -0.2660 C   0  0  2  0  0  0  0  0  0  0  0  0
    7.7890    1.1810   -1.6860 C   0  0  0  0  0  0  0  0  0  0  0  0
    8.5760   -0.1060    0.1930 C   0  0  0  0  0  0  0  0  0  0  0  0
    7.5790    2.0620    0.5290 C   0  0  1  0  0  0  0  0  0  0  0  0
    6.6710    2.9020   -0.1080 O   0  0  0  0  0  0  0  0  0  0  0  0
    7.1570    1.8660    1.9380 C   0  0  0  0  0  0  0  0  0  0  0  0
    7.1060    3.0770    2.6170 O   0  0  0  0  0  0  0  0  0  0  0  0
    8.3490    3.6990    2.6440 C   0  0  0  0  0  0  0  0  0  0  0  0
    9.3070    2.8860    3.2860 O   0  0  0  0  0  0  0  0  0  0  0  0
  1  2  2  0
  2  3  1  0
  2 32  1  0
  3  4  1  0
  4  5  1  0
  5  6  2  0
  5  7  1  0
  7  8  2  0
  7 30  1  0
  8  9  1  0
  9 10  2  0
 10 11  1  0
 11 12  2  3
 11 30  1  0
 12 13  1  0
 13 14  2  0
 13 15  1  0
 15 16  1  0
 16 17  2  0
 16 18  1  0
 18 19  1  0
 19 20  2  0
 19 28  1  0
 20 21  1  0
 21 22  1  0
 21 24  2  0
 22 23  1  0
 24 25  1  0
 24 27  1  0
 25 26  1  0
 27 28  2  0
 28 29  1  0
 30 31  2  0
 32 33  1  0
 33 34  1  0
 34 35  1  6
 34 36  1  0
 34 37  1  0
 37 38  1  6
 37 39  1  0
 39 40  1  0
 40 41  1  0
 41 42  1  0
M  END
