
     RDKit          3D

 43 44  0  0  0  0  0  0  0  0999 V2000
   -6.8510   -4.2590   -0.1820 C   0  0  0  0  0  0  0  0  0  0  0  0
   -6.2220   -3.5260   -1.3150 C   0  0  0  0  0  0  0  0  0  0  0  0
   -6.4370   -2.0660   -1.2700 C   0  0  0  0  0  0  0  0  0  0  0  0
   -5.9010   -1.4250   -0.0590 C   0  0  0  0  0  0  0  0  0  0  0  0
   -4.5910   -0.9720   -0.1130 C   0  0  0  0  0  0  0  0  0  0  0  0
   -3.9470   -0.4030    1.0030 C   0  0  0  0  0  0  0  0  0  0  0  0
   -2.5830    0.0880    0.8970 C   0  0  2  0  0  0  0  0  0  0  0  0
   -1.5870   -0.9500    0.6300 N   0  0  0  0  0  0  0  0  0  0  0  0
   -0.2000   -0.7710    0.5310 C   0  0  0  0  0  0  0  0  0  0  0  0
    0.2960    0.3440    0.7290 O   0  0  0  0  0  0  0  0  0  0  0  0
    0.7130   -1.9380    0.1730 C   0  0  0  0  0  0  0  0  0  0  0  0
    2.0380   -1.3650   -0.0220 O   0  0  0  0  0  0  0  0  0  0  0  0
    2.1400   -0.3610   -0.9550 C   0  0  0  0  0  0  0  0  0  0  0  0
    1.1220   -0.0140   -1.5810 O   0  0  0  0  0  0  0  0  0  0  0  0
    3.4350    0.3580   -1.2540 C   0  0  0  0  0  0  0  0  0  0  0  0
    4.5480   -0.1590   -0.5570 C   0  0  0  0  0  0  0  0  0  0  0  0
    4.6580   -1.1300    0.0680 O   0  0  0  0  0  0  0  0  0  0  0  0
    5.9770    0.7910   -0.6330 N   0  0  0  0  0  0  0  0  0  0  0  0
    6.8530   -0.1230    0.0260 C   0  0  0  0  0  0  0  0  0  0  0  0
    6.7150   -1.1820    0.5490 O   0  0  0  0  0  0  0  0  0  0  0  0
    8.2070    0.5100   -0.0030 N   0  0  0  0  0  0  0  0  0  0  0  0
    9.3270   -0.0980    0.5710 C   0  0  0  0  0  0  0  0  0  0  0  0
    9.6130   -1.4200   -0.0700 C   0  0  0  0  0  0  0  0  0  0  0  0
   10.7130   -2.0550    0.4740 O   0  0  0  0  0  0  0  0  0  0  0  0
   11.8840   -1.3250    0.3500 C   0  0  0  0  0  0  0  0  0  0  0  0
    3.3040    1.3910   -2.0020 C   0  0  0  0  0  0  0  0  0  0  0  0
    4.2140    2.3650   -2.5490 C   0  0  0  0  0  0  0  0  0  0  0  0
    1.9240    1.6660   -2.3970 O   0  0  0  0  0  0  0  0  0  0  0  0
   -2.1700    1.3180    1.5670 C   0  0  2  0  0  0  0  0  0  0  0  0
   -1.7800    2.4820    0.7540 C   0  0  0  0  0  0  0  0  0  0  0  0
   -2.7510    3.1040   -0.1740 C   0  0  0  0  0  0  0  0  0  0  0  0
   -3.2840    2.4040   -1.3150 C   0  0  0  0  0  0  0  0  0  0  0  0
   -2.5210    2.1760   -2.3210 O   0  0  0  0  0  0  0  0  0  0  0  0
   -4.5850    1.9260   -1.4760 O   0  0  0  0  0  0  0  0  0  0  0  0
   -4.9760    1.2590   -2.6650 C   0  0  0  0  0  0  0  0  0  0  0  0
   -1.4550    1.1660    2.7300 O   0  0  0  0  0  0  0  0  0  0  0  0
   -1.6930    2.2990    3.4680 C   0  0  0  0  0  0  0  0  0  0  0  0
   -3.0660    2.7520    3.0520 C   0  0  0  0  0  0  0  0  0  0  0  0
   -3.4560    1.8230    2.1280 O   0  0  0  0  0  0  0  0  0  0  0  0
   -4.6700   -0.3200    2.1610 C   0  0  0  0  0  0  0  0  0  0  0  0
   -5.9890   -0.7730    2.2180 C   0  0  0  0  0  0  0  0  0  0  0  0
   -6.6120   -1.3290    1.0970 C   0  0  0  0  0  0  0  0  0  0  0  0
   -7.9420   -1.7420    1.2340 O   0  0  0  0  0  0  0  0  0  0  0  0
  1  2  1  0
  2  3  1  0
  3  4  1  0
  4  5  2  0
  4 42  1  0
  5  6  1  0
  6  7  1  0
  6 40  2  0
  7  8  1  1
  7 29  1  0
  8  9  1  0
  9 10  2  0
  9 11  1  0
 11 12  1  0
 12 13  1  0
 13 14  2  0
 13 15  1  0
 15 16  1  0
 15 26  2  3
 16 17  2  0
 16 18  1  0
 18 19  1  0
 19 20  2  0
 19 21  1  0
 21 22  1  0
 22 23  1  0
 23 24  1  0
 24 25  1  0
 26 27  1  0
 26 28  1  0
 29 30  1  6
 29 36  1  0
 29 39  1  0
 30 31  1  0
 31 32  1  0
 32 33  2  0
 32 34  1  0
 34 35  1  0
 36 37  1  0
 37 38  1  0
 38 39  1  0
 40 41  1  0
 41 42  2  0
 42 43  1  0
M  END
