
     RDKit          3D

 43 44  0  0  0  0  0  0  0  0999 V2000
   13.0630    0.6610    1.4070 C   0  0  0  0  0  0  0  0  0  0  0  0
   12.2810    0.6090    0.1130 C   0  0  0  0  0  0  0  0  0  0  0  0
   11.0980   -0.1440    0.3500 O   0  0  0  0  0  0  0  0  0  0  0  0
   10.1680   -0.3750   -0.6590 C   0  0  0  0  0  0  0  0  0  0  0  0
   10.4480    0.1240   -1.7770 O   0  0  0  0  0  0  0  0  0  0  0  0
    8.9570   -1.1530   -0.3930 C   0  0  0  0  0  0  0  0  0  0  0  0
    8.0360   -1.3340   -1.5520 C   0  0  0  0  0  0  0  0  0  0  0  0
    7.4900   -0.0930   -2.1240 C   0  0  0  0  0  0  0  0  0  0  0  0
    8.1750    0.5300   -2.9850 O   0  0  0  0  0  0  0  0  0  0  0  0
    6.1910    0.4240   -1.7230 C   0  0  0  0  0  0  0  0  0  0  0  0
    5.3600   -0.1510   -0.8080 C   0  0  0  0  0  0  0  0  0  0  0  0
    4.1170    0.3690   -0.4470 C   0  0  0  0  0  0  0  0  0  0  0  0
    3.3880   -0.3470    0.5300 N   0  0  0  0  0  0  0  0  0  0  0  0
    2.0300   -0.1850    0.8510 C   0  0  0  0  0  0  0  0  0  0  0  0
    1.3310    0.6540    0.2510 O   0  0  0  0  0  0  0  0  0  0  0  0
    1.3810   -1.0150    1.9240 C   0  0  0  0  0  0  0  0  0  0  0  0
    0.0020   -0.6940    2.0320 O   0  0  0  0  0  0  0  0  0  0  0  0
   -0.8510   -0.8720    0.9510 C   0  0  0  0  0  0  0  0  0  0  0  0
   -0.3590   -1.3240   -0.1170 O   0  0  0  0  0  0  0  0  0  0  0  0
   -2.2670   -0.5440    1.0610 C   0  0  0  0  0  0  0  0  0  0  0  0
   -3.1130   -0.7350   -0.0010 C   0  0  0  0  0  0  0  0  0  0  0  0
   -4.4670   -0.4160    0.1370 C   0  0  0  0  0  0  0  0  0  0  0  0
   -5.3030   -0.6850   -1.0170 C   0  0  0  0  0  0  0  0  0  0  0  0
   -4.8270   -1.0350   -2.1320 O   0  0  0  0  0  0  0  0  0  0  0  0
   -6.6650   -0.5730   -0.9460 O   0  0  0  0  0  0  0  0  0  0  0  0
   -7.5280   -0.8260   -2.0390 C   0  0  2  0  0  0  0  0  0  0  0  0
   -8.9450   -0.5940   -1.5590 C   0  0  0  0  0  0  0  0  0  0  0  0
   -7.4460   -2.2570   -2.5200 C   0  0  0  0  0  0  0  0  0  0  0  0
   -7.2580    0.1230   -3.1700 C   0  0  0  0  0  0  0  0  0  0  0  0
   -4.9180    0.0870    1.3460 C   0  0  0  0  0  0  0  0  0  0  0  0
   -6.3320    0.4170    1.4450 C   0  0  0  0  0  0  0  0  0  0  0  0
   -6.7740    1.1340    2.6990 C   0  0  1  0  0  0  0  0  0  0  0  0
   -8.3140    1.3540    2.6240 C   0  0  0  0  0  0  0  0  0  0  0  0
   -6.5400    0.4830    3.8640 O   0  0  0  0  0  0  0  0  0  0  0  0
   -6.2360    2.5560    2.6200 C   0  0  0  0  0  0  0  0  0  0  0  0
   -6.6140    3.0140    1.3310 O   0  0  0  0  0  0  0  0  0  0  0  0
   -4.0710    0.2700    2.3880 N   0  0  0  0  0  0  0  0  0  0  0  0
   -2.7660   -0.0370    2.2580 C   0  0  0  0  0  0  0  0  0  0  0  0
   -1.9660    0.1190    3.1940 O   0  0  0  0  0  0  0  0  0  0  0  0
    3.6930    1.5260   -1.0400 C   0  0  0  0  0  0  0  0  0  0  0  0
    4.5140    2.1350   -1.9740 C   0  0  0  0  0  0  0  0  0  0  0  0
    5.7340    1.6020   -2.3110 C   0  0  0  0  0  0  0  0  0  0  0  0
    6.5260    2.2270   -3.2400 O   0  0  0  0  0  0  0  0  0  0  0  0
  1  2  1  0
  2  3  1  0
  3  4  1  0
  4  5  2  0
  4  6  1  0
  6  7  1  0
  7  8  1  0
  8  9  2  0
  8 10  1  0
 10 11  2  0
 10 42  1  0
 11 12  1  0
 12 13  1  0
 12 40  2  0
 13 14  1  0
 14 15  2  0
 14 16  1  0
 16 17  1  0
 17 18  1  0
 18 19  2  0
 18 20  1  0
 20 21  2  0
 20 38  1  0
 21 22  1  0
 22 23  1  0
 22 30  2  0
 23 24  2  0
 23 25  1  0
 25 26  1  0
 26 27  1  1
 26 28  1  0
 26 29  1  0
 30 31  1  0
 30 37  1  0
 31 32  1  0
 32 33  1  6
 32 34  1  0
 32 35  1  0
 35 36  1  0
 37 38  1  0
 38 39  2  0
 40 41  1  0
 41 42  2  0
 42 43  1  0
M  END
