
     RDKit          3D

 36 40  0  0  0  0  0  0  0  0999 V2000
   -0.1260    4.5500    2.2570 C   0  0  0  0  0  0  0  0  0  0  0  0
   -1.2630    3.6990    1.8070 C   0  0  0  0  0  0  0  0  0  0  0  0
   -2.2720    3.6160    2.5430 O   0  0  0  0  0  0  0  0  0  0  0  0
   -1.2140    3.0040    0.5910 N   0  0  0  0  0  0  0  0  0  0  0  0
   -2.3080    2.1520    0.1060 C   0  0  0  0  0  0  0  0  0  0  0  0
   -2.5940    1.0310    1.0470 C   0  0  0  0  0  0  0  0  0  0  0  0
   -3.6760    0.1690    0.5490 C   0  0  0  0  0  0  0  0  0  0  0  0
   -4.9970    0.3560    0.9550 C   0  0  0  0  0  0  0  0  0  0  0  0
   -6.0080   -0.4400    0.4610 C   0  0  0  0  0  0  0  0  0  0  0  0
   -5.7350   -1.4290   -0.4390 C   0  0  0  0  0  0  0  0  0  0  0  0
   -4.3860   -1.6020   -0.8400 C   0  0  0  0  0  0  0  0  0  0  0  0
   -3.3660   -0.8410   -0.3740 C   0  0  0  0  0  0  0  0  0  0  0  0
   -1.9550   -1.0130   -0.7190 C   0  0  0  0  0  0  0  0  0  0  0  0
   -1.3670   -0.4800   -1.6750 O   0  0  0  0  0  0  0  0  0  0  0  0
   -1.1230   -1.8440    0.0740 O   0  0  0  0  0  0  0  0  0  0  0  0
    0.2240   -2.0380   -0.1950 C   0  0  0  0  0  0  0  0  0  0  0  0
    0.5990   -3.2200   -0.7950 C   0  0  0  0  0  0  0  0  0  0  0  0
    1.9480   -3.4490   -1.0820 C   0  0  0  0  0  0  0  0  0  0  0  0
    2.8810   -2.4860   -0.7580 C   0  0  0  0  0  0  0  0  0  0  0  0
    2.5570   -1.3010   -0.1630 C   0  0  0  0  0  0  0  0  0  0  0  0
    3.4410   -0.2590    0.1980 N   0  0  0  0  0  0  0  0  0  0  0  0
    4.8360   -0.1870   -0.0090 C   0  0  0  0  0  0  0  0  0  0  0  0
    5.3710   -1.1880   -0.5960 O   0  0  0  0  0  0  0  0  0  0  0  0
    5.6460    0.9040    0.3890 C   0  0  0  0  0  0  0  0  0  0  0  0
    5.6540    2.0010    0.9270 C   0  0  0  0  0  0  0  0  0  0  0  0
    5.4950    3.4210    0.7410 C   0  0  0  0  0  0  0  0  0  0  0  0
    7.0910    3.4870    0.3450 C   0  0  0  0  0  0  0  0  0  0  0  0
    7.6530    2.1890    0.8830 C   0  0  1  0  0  0  0  0  0  0  0  0
    6.6000    1.9730    2.0720 C   0  0  0  0  0  0  0  0  0  0  0  0
    7.2070    0.9860    0.0460 C   0  0  0  0  0  0  0  0  0  0  0  0
    1.1850   -1.1310    0.0990 C   0  0  0  0  0  0  0  0  0  0  0  0
   -4.2280   -2.6570   -1.8250 C   0  0  1  0  0  0  0  0  0  0  0  0
   -2.9800   -2.8370   -2.5590 C   0  0  0  0  0  0  0  0  0  0  0  0
   -4.8310   -3.9040   -1.1970 C   0  0  0  0  0  0  0  0  0  0  0  0
   -6.3300   -3.7150   -1.1900 C   0  0  0  0  0  0  0  0  0  0  0  0
   -6.7900   -2.3080   -0.9700 C   0  0  0  0  0  0  0  0  0  0  0  0
  1  2  1  0
  2  3  2  0
  2  4  1  0
  4  5  1  0
  5  6  1  0
  6  7  1  0
  7  8  2  0
  7 12  1  0
  8  9  1  0
  9 10  2  0
 10 11  1  0
 10 36  1  0
 11 12  2  0
 11 32  1  0
 12 13  1  0
 13 14  2  0
 13 15  1  0
 15 16  1  0
 16 17  2  0
 16 31  1  0
 17 18  1  0
 18 19  2  0
 19 20  1  0
 20 21  1  0
 20 31  2  0
 21 22  1  0
 22 23  2  0
 22 24  1  0
 24 25  2  0
 24 30  1  0
 25 26  1  0
 25 29  1  0
 26 27  1  0
 28 27  1  6
 28 29  1  0
 28 30  1  0
 32 33  1  1
 32 34  1  0
 34 35  1  0
 35 36  1  0
M  END
