
     RDKit          3D

 43 44  0  0  0  0  0  0  0  0999 V2000
   -2.6740   -4.7510    0.4870 C   0  0  0  0  0  0  0  0  0  0  0  0
   -2.1710   -3.4780    0.8100 O   0  0  0  0  0  0  0  0  0  0  0  0
   -1.4080   -2.7960   -0.2140 C   0  0  0  0  0  0  0  0  0  0  0  0
   -1.1860   -3.2540   -1.2590 O   0  0  0  0  0  0  0  0  0  0  0  0
   -0.9280   -1.4270    0.2450 C   0  0  0  0  0  0  0  0  0  0  0  0
   -1.8600   -0.3620   -0.1640 C   0  0  2  0  0  0  0  0  0  0  0  0
   -1.4530    1.0520    0.3010 C   0  0  0  0  0  0  0  0  0  0  0  0
   -0.0550    1.0660    0.3950 O   0  0  0  0  0  0  0  0  0  0  0  0
    0.6040    2.2050    0.9020 C   0  0  0  0  0  0  0  0  0  0  0  0
   -0.0470    3.1910    1.2320 O   0  0  0  0  0  0  0  0  0  0  0  0
    2.0760    2.0960    0.9930 C   0  0  0  0  0  0  0  0  0  0  0  0
    2.6380    0.9850    0.6680 C   0  0  0  0  0  0  0  0  0  0  0  0
    4.0430    0.6830    0.6710 C   0  0  0  0  0  0  0  0  0  0  0  0
    4.4680   -0.6000    0.3500 C   0  0  0  0  0  0  0  0  0  0  0  0
    5.7540   -0.9450    0.1160 C   0  0  0  0  0  0  0  0  0  0  0  0
    6.7750    0.0170    0.2110 C   0  0  0  0  0  0  0  0  0  0  0  0
    8.0380   -0.3310   -0.0230 O   0  0  0  0  0  0  0  0  0  0  0  0
    9.3310   -0.2400   -0.2030 C   0  0  1  0  0  0  0  0  0  0  0  0
    9.8050    0.6740   -1.3550 C   0  0  0  0  0  0  0  0  0  0  0  0
   10.0510    0.3050    1.0080 C   0  0  0  0  0  0  0  0  0  0  0  0
   10.0110   -1.6040   -0.4540 C   0  0  0  0  0  0  0  0  0  0  0  0
    6.3840    1.3090    0.5530 C   0  0  0  0  0  0  0  0  0  0  0  0
    7.3650    2.3050    0.6860 O   0  0  0  0  0  0  0  0  0  0  0  0
    5.0180    1.6340    0.7760 C   0  0  0  0  0  0  0  0  0  0  0  0
   -3.1670   -0.6160    0.1290 O   0  0  0  0  0  0  0  0  0  0  0  0
   -4.3140    0.1240   -0.0250 C   0  0  0  0  0  0  0  0  0  0  0  0
   -4.9440    0.1130   -1.2180 C   0  0  0  0  0  0  0  0  0  0  0  0
   -4.4070   -0.7830   -2.3710 C   0  0  0  0  0  0  0  0  0  0  0  0
   -5.5800   -1.6740   -2.6450 O   0  0  0  0  0  0  0  0  0  0  0  0
   -5.2550   -3.0130   -2.3250 C   0  0  0  0  0  0  0  0  0  0  0  0
   -6.2310   -4.0820   -2.3480 N   0  0  0  0  0  0  0  0  0  0  0  0
   -4.1060   -3.3130   -1.9940 O   0  0  0  0  0  0  0  0  0  0  0  0
   -6.0860    0.8680   -1.3960 C   0  0  0  0  0  0  0  0  0  0  0  0
   -6.5550    1.6180   -0.3290 C   0  0  0  0  0  0  0  0  0  0  0  0
   -7.6480    2.5850   -0.5350 C   0  0  0  0  0  0  0  0  0  0  0  0
   -8.0760    3.0310   -1.8180 N   0  0  0  0  0  0  0  0  0  0  0  0
   -8.2650    3.0870    0.4390 O   0  0  0  0  0  0  0  0  0  0  0  0
   -5.9510    1.6300    0.8800 C   0  0  0  0  0  0  0  0  0  0  0  0
   -6.4030    2.3710    2.0100 O   0  0  0  0  0  0  0  0  0  0  0  0
   -7.2610    1.5900    2.8940 C   0  0  0  0  0  0  0  0  0  0  0  0
   -4.7750    0.8590    1.0790 C   0  0  0  0  0  0  0  0  0  0  0  0
   -4.2720    0.9110    2.2890 O   0  0  0  0  0  0  0  0  0  0  0  0
   -3.5610    1.5680    3.1990 C   0  0  0  0  0  0  0  0  0  0  0  0
  1  2  1  0
  2  3  1  0
  3  4  2  0
  3  5  1  0
  6  5  1  1
  6  7  1  0
  6 25  1  0
  7  8  1  0
  8  9  1  0
  9 10  2  0
  9 11  1  0
 11 12  2  3
 12 13  1  0
 13 14  2  0
 13 24  1  0
 14 15  1  0
 15 16  2  0
 16 17  1  0
 16 22  1  0
 17 18  1  0
 18 19  1  6
 18 20  1  0
 18 21  1  0
 22 23  1  0
 22 24  2  0
 25 26  1  0
 26 27  2  0
 26 41  1  0
 27 28  1  0
 27 33  1  0
 28 29  1  0
 29 30  1  0
 30 31  1  0
 30 32  2  0
 33 34  2  0
 34 35  1  0
 34 38  1  0
 35 36  1  0
 35 37  2  0
 38 39  1  0
 38 41  2  0
 39 40  1  0
 41 42  1  0
 42 43  1  0
M  END
