
     RDKit          3D

 36 40  0  0  0  0  0  0  0  0999 V2000
   -7.7510   -1.8020   -1.3270 C   0  0  0  0  0  0  0  0  0  0  0  0
   -6.9900   -1.5650   -2.5900 C   0  0  0  0  0  0  0  0  0  0  0  0
   -5.6130   -1.0910   -2.3280 C   0  0  0  0  0  0  0  0  0  0  0  0
   -5.5440    0.2220   -1.5730 C   0  0  2  0  0  0  0  0  0  0  0  0
   -4.0870    0.5740   -1.4200 C   0  0  0  0  0  0  0  0  0  0  0  0
   -3.5160    0.1450   -0.0830 C   0  0  1  0  0  0  0  0  0  0  0  0
   -2.1560    0.5100    0.1430 N   0  0  0  0  0  0  0  0  0  0  0  0
   -1.0930   -0.3540   -0.1710 C   0  0  0  0  0  0  0  0  0  0  0  0
   -1.4360   -1.4730   -0.6910 O   0  0  0  0  0  0  0  0  0  0  0  0
    0.3270   -0.0900    0.0370 C   0  0  0  0  0  0  0  0  0  0  0  0
    1.3660   -0.7090   -0.5710 N   0  0  0  0  0  0  0  0  0  0  0  0
    2.5320   -0.2530   -0.1020 C   0  0  0  0  0  0  0  0  0  0  0  0
    3.8500   -0.5370   -0.3780 C   0  0  0  0  0  0  0  0  0  0  0  0
    4.9000    0.0700    0.2380 C   0  0  0  0  0  0  0  0  0  0  0  0
    6.1880   -0.2230   -0.0540 O   0  0  0  0  0  0  0  0  0  0  0  0
    6.9860   -1.2470    0.3490 C   0  0  0  0  0  0  0  0  0  0  0  0
    6.5760   -2.2830    1.1510 C   0  0  0  0  0  0  0  0  0  0  0  0
    7.4440   -3.3010    1.5280 C   0  0  0  0  0  0  0  0  0  0  0  0
    8.7470   -3.3030    1.1030 C   0  0  0  0  0  0  0  0  0  0  0  0
    9.1790   -2.2670    0.2920 C   0  0  0  0  0  0  0  0  0  0  0  0
    8.3230   -1.2620   -0.0790 C   0  0  0  0  0  0  0  0  0  0  0  0
    8.7790   -0.2430   -0.8820 O   0  0  0  0  0  0  0  0  0  0  0  0
   10.0700   -0.1030   -1.3930 C   0  0  0  0  0  0  0  0  0  0  0  0
   10.0950    1.1940   -2.2140 C   0  0  0  0  0  0  0  0  0  0  0  0
    4.6280    1.0380    1.2050 C   0  0  0  0  0  0  0  0  0  0  0  0
    3.3240    1.3530    1.5100 C   0  0  0  0  0  0  0  0  0  0  0  0
    2.2820    0.7150    0.8610 C   0  0  0  0  0  0  0  0  0  0  0  0
    0.8920    0.8030    0.9320 C   0  0  0  0  0  0  0  0  0  0  0  0
    0.2190    1.7480    1.8630 C   0  0  0  0  0  0  0  0  0  0  0  0
   -4.4560    0.5480    1.0450 C   0  0  1  0  0  0  0  0  0  0  0  0
   -4.4610    2.0470    1.2570 C   0  0  0  0  0  0  0  0  0  0  0  0
   -5.7020    2.7240    0.7320 C   0  0  0  0  0  0  0  0  0  0  0  0
   -6.9800    2.0890    1.1710 C   0  0  0  0  0  0  0  0  0  0  0  0
   -6.7740    0.6960    1.7480 C   0  0  0  0  0  0  0  0  0  0  0  0
   -5.8300   -0.0070    0.7600 C   0  0  1  0  0  0  0  0  0  0  0  0
   -6.3010    0.1550   -0.4720 O   0  0  0  0  0  0  0  0  0  0  0  0
  1  2  1  0
  2  3  1  0
  4  3  1  1
  4  5  1  0
  4 36  1  0
  5  6  1  0
  6  7  1  1
  6 30  1  0
  7  8  1  0
  8  9  2  0
  8 10  1  0
 10 11  1  0
 10 28  2  0
 11 12  1  0
 12 13  2  0
 12 27  1  0
 13 14  1  0
 14 15  1  0
 14 25  2  0
 15 16  1  0
 16 17  2  0
 16 21  1  0
 17 18  1  0
 18 19  2  0
 19 20  1  0
 20 21  2  0
 21 22  1  0
 22 23  1  0
 23 24  1  0
 25 26  1  0
 26 27  2  0
 27 28  1  0
 28 29  1  0
 30 31  1  6
 30 35  1  0
 31 32  1  0
 32 33  1  0
 33 34  1  0
 35 34  1  1
 35 36  1  0
M  END
