
     RDKit          3D

 41 44  0  0  0  0  0  0  0  0999 V2000
   -5.2640   -1.3410   -2.6790 C   0  0  0  0  0  0  0  0  0  0  0  0
   -5.3920   -2.0500   -1.5820 C   0  0  0  0  0  0  0  0  0  0  0  0
   -5.3990   -3.4480   -1.8150 F   0  0  0  0  0  0  0  0  0  0  0  0
   -5.6290   -1.5800   -0.2430 C   0  0  0  0  0  0  0  0  0  0  0  0
   -5.7480   -2.4330    0.7790 C   0  0  0  0  0  0  0  0  0  0  0  0
   -5.6730   -3.8990    0.6720 C   0  0  0  0  0  0  0  0  0  0  0  0
   -6.0480   -0.1640   -0.0260 C   0  0  0  0  0  0  0  0  0  0  0  0
   -5.3580    0.8920   -0.5420 C   0  0  0  0  0  0  0  0  0  0  0  0
   -3.8930    0.7840   -0.6720 N   0  0  0  0  0  0  0  0  0  0  0  0
   -3.1380    1.8520   -0.1730 C   0  0  0  0  0  0  0  0  0  0  0  0
   -4.0790    2.7940    0.3250 O   0  0  0  0  0  0  0  0  0  0  0  0
   -1.8730    2.3830    0.0600 C   0  0  0  0  0  0  0  0  0  0  0  0
   -0.6910    2.3930    0.0650 C   0  0  0  0  0  0  0  0  0  0  0  0
    0.7150    2.4790    0.1080 C   0  0  0  0  0  0  0  0  0  0  0  0
    1.7930    1.6770   -0.1870 C   0  0  0  0  0  0  0  0  0  0  0  0
    2.9930    2.3120    0.0440 C   0  0  0  0  0  0  0  0  0  0  0  0
    4.3200    1.9890   -0.0160 N   0  0  0  0  0  0  0  0  0  0  0  0
    4.9870    0.7490   -0.3090 C   0  0  0  0  0  0  0  0  0  0  0  0
    4.2550   -0.2360   -0.5840 O   0  0  0  0  0  0  0  0  0  0  0  0
    6.4880    0.7110   -0.2500 C   0  0  1  0  0  0  0  0  0  0  0  0
    6.8890    1.1870    1.2050 C   0  0  0  0  0  0  0  0  0  0  0  0
    6.8950   -0.6560   -0.2740 N   0  0  0  0  0  0  0  0  0  0  0  0
    8.1560   -1.1670   -0.7600 C   0  0  0  0  0  0  0  0  0  0  0  0
    8.9560   -0.3020   -1.1980 O   0  0  0  0  0  0  0  0  0  0  0  0
    8.3430   -2.6050   -0.6720 C   0  0  0  0  0  0  0  0  0  0  0  0
    9.6180   -2.9630    0.1080 C   0  0  0  0  0  0  0  0  0  0  0  0
   10.4990   -3.8120   -0.2680 C   0  0  0  0  0  0  0  0  0  0  0  0
   11.5010   -3.8160    0.7720 C   0  0  0  0  0  0  0  0  0  0  0  0
   11.0290   -2.8980    1.6790 C   0  0  0  0  0  0  0  0  0  0  0  0
    9.8550   -2.3980    1.2240 O   0  0  0  0  0  0  0  0  0  0  0  0
    2.5760    3.5520    0.4990 N   0  0  0  0  0  0  0  0  0  0  0  0
    1.3540    3.6410    0.5350 O   0  0  0  0  0  0  0  0  0  0  0  0
   -5.9830    2.1140   -0.5880 C   0  0  0  0  0  0  0  0  0  0  0  0
   -7.2820    2.3130   -0.1030 C   0  0  0  0  0  0  0  0  0  0  0  0
   -7.9730    1.2610    0.4340 C   0  0  0  0  0  0  0  0  0  0  0  0
   -7.3410    0.0250    0.4660 C   0  0  0  0  0  0  0  0  0  0  0  0
   -8.0960   -1.0110    1.0590 C   0  0  0  0  0  0  0  0  0  0  0  0
   -8.7530   -1.9000    1.5930 N   0  0  0  0  0  0  0  0  0  0  0  0
   -9.1660    1.6910    0.8300 C   0  0  0  0  0  0  0  0  0  0  0  0
   -9.3160    3.1510    0.5370 C   0  0  0  0  0  0  0  0  0  0  0  0
   -8.0000    3.4470   -0.0820 C   0  0  0  0  0  0  0  0  0  0  0  0
  1  2  2  0
  2  3  1  0
  2  4  1  0
  4  5  2  3
  4  7  1  0
  5  6  1  0
  7  8  1  0
  7 36  2  0
  8  9  1  0
  8 33  2  0
  9 10  1  0
 10 11  2  0
 10 12  1  0
 12 13  2  3
 13 14  1  0
 14 15  2  0
 14 32  1  0
 15 16  1  0
 16 17  1  0
 16 31  2  0
 17 18  1  0
 18 19  2  0
 18 20  1  0
 20 21  1  1
 20 22  1  0
 22 23  1  0
 23 24  2  0
 23 25  1  0
 25 26  1  0
 26 27  2  0
 26 30  1  0
 27 28  1  0
 28 29  2  0
 29 30  1  0
 31 32  1  0
 33 34  1  0
 34 35  1  0
 34 41  2  0
 35 36  1  0
 35 39  2  0
 36 37  1  0
 37 38  3  0
 39 40  1  0
 40 41  1  0
M  END
