
     RDKit          3D

 41 45  0  0  0  0  0  0  0  0999 V2000
   12.7830    0.7180   -0.8450 C   0  0  0  0  0  0  0  0  0  0  0  0
   11.3980    0.4210   -0.4100 C   0  0  0  0  0  0  0  0  0  0  0  0
   10.8510   -0.8060   -0.7300 C   0  0  0  0  0  0  0  0  0  0  0  0
    9.5500   -1.1300   -0.3560 C   0  0  0  0  0  0  0  0  0  0  0  0
    8.7600   -0.2480    0.3430 C   0  0  0  0  0  0  0  0  0  0  0  0
    7.4060   -0.5190    0.7200 N   0  0  0  0  0  0  0  0  0  0  0  0
    6.8740   -1.6610    1.3540 C   0  0  0  0  0  0  0  0  0  0  0  0
    7.4970   -2.6890    1.7360 O   0  0  0  0  0  0  0  0  0  0  0  0
    5.4140   -1.4930    1.5230 C   0  0  0  0  0  0  0  0  0  0  0  0
    4.4500   -2.3280    2.0700 C   0  0  0  0  0  0  0  0  0  0  0  0
    3.1450   -1.8920    2.0720 C   0  0  0  0  0  0  0  0  0  0  0  0
    2.7780   -0.6800    1.5590 C   0  0  0  0  0  0  0  0  0  0  0  0
    1.3830   -0.2250    1.5380 C   0  0  0  0  0  0  0  0  0  0  0  0
    1.1500    0.8630    2.1370 O   0  0  0  0  0  0  0  0  0  0  0  0
    0.3520   -0.9340    0.8920 N   0  0  0  0  0  0  0  0  0  0  0  0
   -1.0080   -0.5160    0.8350 C   0  0  0  0  0  0  0  0  0  0  0  0
   -1.6020    0.3920    1.6550 C   0  0  0  0  0  0  0  0  0  0  0  0
   -2.9050    0.8220    1.4960 C   0  0  0  0  0  0  0  0  0  0  0  0
   -3.6500    0.3140    0.4580 C   0  0  0  0  0  0  0  0  0  0  0  0
   -5.0290    0.8590    0.3100 C   0  0  0  0  0  0  0  0  0  0  0  0
   -5.6500    0.5860   -0.9310 N   0  0  0  0  0  0  0  0  0  0  0  0
   -6.9180    1.1680   -1.1830 C   0  0  2  0  0  0  0  0  0  0  0  0
   -7.9550    0.6640   -0.2560 C   0  0  0  0  0  0  0  0  0  0  0  0
   -7.6800   -0.2260    0.5800 O   0  0  0  0  0  0  0  0  0  0  0  0
   -9.2820    1.1670   -0.2830 N   0  0  0  0  0  0  0  0  0  0  0  0
  -10.3760    0.7560    0.5500 C   0  0  0  0  0  0  0  0  0  0  0  0
  -10.7240   -0.6750    0.3200 C   0  0  0  0  0  0  0  0  0  0  0  0
   -9.7410   -1.5860    0.5760 F   0  0  0  0  0  0  0  0  0  0  0  0
   -7.3400    0.8750   -2.6020 C   0  0  0  0  0  0  0  0  0  0  0  0
   -7.2470   -0.3830   -3.1860 C   0  0  0  0  0  0  0  0  0  0  0  0
   -7.7190   -0.2620   -4.4730 C   0  0  0  0  0  0  0  0  0  0  0  0
   -8.0680    1.0410   -4.6030 N   0  0  0  0  0  0  0  0  0  0  0  0
   -7.8370    1.6770   -3.5000 O   0  0  0  0  0  0  0  0  0  0  0  0
   -3.1080   -0.5980   -0.3910 C   0  0  0  0  0  0  0  0  0  0  0  0
   -1.7910   -1.0130   -0.2030 C   0  0  0  0  0  0  0  0  0  0  0  0
    3.7620    0.1460    1.0130 C   0  0  0  0  0  0  0  0  0  0  0  0
    5.0690   -0.2720    1.0010 C   0  0  0  0  0  0  0  0  0  0  0  0
    6.2820    0.3560    0.4960 C   0  0  0  0  0  0  0  0  0  0  0  0
    6.3430    1.4790   -0.0480 O   0  0  0  0  0  0  0  0  0  0  0  0
    9.3180    0.9800    0.6610 C   0  0  0  0  0  0  0  0  0  0  0  0
   10.6110    1.3120    0.2930 C   0  0  0  0  0  0  0  0  0  0  0  0
  1  2  1  0
  2  3  2  0
  2 41  1  0
  3  4  1  0
  4  5  2  0
  5  6  1  0
  5 40  1  0
  6  7  1  0
  6 38  1  0
  7  8  2  0
  7  9  1  0
  9 10  2  0
  9 37  1  0
 10 11  1  0
 11 12  2  0
 12 13  1  0
 12 36  1  0
 13 14  2  0
 13 15  1  0
 15 16  1  0
 16 17  2  0
 16 35  1  0
 17 18  1  0
 18 19  2  0
 19 20  1  0
 19 34  1  0
 20 21  1  0
 22 21  1  1
 22 23  1  0
 22 29  1  0
 23 24  2  0
 23 25  1  0
 25 26  1  0
 26 27  1  0
 27 28  1  0
 29 30  2  0
 29 33  1  0
 30 31  1  0
 31 32  2  0
 32 33  1  0
 34 35  2  0
 36 37  2  0
 37 38  1  0
 38 39  2  0
 40 41  2  0
M  END
