
     RDKit          3D

 41 45  0  0  0  0  0  0  0  0999 V2000
    2.0990    6.1170    0.2200 C   0  0  0  0  0  0  0  0  0  0  0  0
    1.2040    5.0430    0.3440 O   0  0  0  0  0  0  0  0  0  0  0  0
    1.6260    3.7410    0.5170 C   0  0  0  0  0  0  0  0  0  0  0  0
    3.0000    3.5400    0.5630 C   0  0  0  0  0  0  0  0  0  0  0  0
    3.4900    2.2710    0.7360 C   0  0  0  0  0  0  0  0  0  0  0  0
    2.6560    1.1890    0.8650 C   0  0  0  0  0  0  0  0  0  0  0  0
    3.0970   -0.1590    1.0320 N   0  0  0  0  0  0  0  0  0  0  0  0
    4.4010   -0.6090    0.8150 C   0  0  0  0  0  0  0  0  0  0  0  0
    5.2850    0.1950    0.4400 O   0  0  0  0  0  0  0  0  0  0  0  0
    4.7080   -1.9860    1.0270 N   0  0  0  0  0  0  0  0  0  0  0  0
    5.9700   -2.5720    0.8480 C   0  0  0  0  0  0  0  0  0  0  0  0
    7.0740   -1.9030    0.4410 C   0  0  0  0  0  0  0  0  0  0  0  0
    8.2880   -2.5950    0.2950 C   0  0  0  0  0  0  0  0  0  0  0  0
    8.3510   -3.9270    0.5630 C   0  0  0  0  0  0  0  0  0  0  0  0
    7.2720   -4.6140    0.9680 N   0  0  0  0  0  0  0  0  0  0  0  0
    7.3600   -6.0290    1.2480 C   0  0  0  0  0  0  0  0  0  0  0  0
    6.1330   -3.9470    1.1010 C   0  0  0  0  0  0  0  0  0  0  0  0
    5.1090   -4.5860    1.4830 O   0  0  0  0  0  0  0  0  0  0  0  0
    1.3140    1.4380    0.8130 C   0  0  0  0  0  0  0  0  0  0  0  0
    0.7160    2.7190    0.6370 C   0  0  0  0  0  0  0  0  0  0  0  0
   -0.6230    2.7710    0.6120 O   0  0  0  0  0  0  0  0  0  0  0  0
   -1.6970    3.0550   -0.1140 C   0  0  0  0  0  0  0  0  0  0  0  0
   -2.5560    1.9440   -0.4210 C   0  0  0  0  0  0  0  0  0  0  0  0
   -3.6810    2.0730   -1.1440 C   0  0  0  0  0  0  0  0  0  0  0  0
   -4.5860    0.9380   -1.4800 C   0  0  2  0  0  0  0  0  0  0  0  0
   -4.8250    0.0690   -0.3410 N   0  0  0  0  0  0  0  0  0  0  0  0
   -6.1190   -0.1670    0.1850 C   0  0  0  0  0  0  0  0  0  0  0  0
   -7.1050    0.4000   -0.3570 O   0  0  0  0  0  0  0  0  0  0  0  0
   -6.3520   -1.0600    1.3510 C   0  0  1  0  0  0  0  0  0  0  0  0
   -5.4990   -2.3420    1.2940 C   0  0  0  0  0  0  0  0  0  0  0  0
   -5.2390   -1.3300    2.3280 C   0  0  0  0  0  0  0  0  0  0  0  0
   -4.0270    0.1150   -2.5350 N   0  0  0  0  0  0  0  0  0  0  0  0
   -4.7970   -1.0070   -2.9480 C   0  0  0  0  0  0  0  0  0  0  0  0
   -6.0230   -0.9760   -3.4650 C   0  0  0  0  0  0  0  0  0  0  0  0
   -6.4420   -2.3540   -3.7490 C   0  0  0  0  0  0  0  0  0  0  0  0
   -5.5090   -3.0950   -3.1740 C   0  0  0  0  0  0  0  0  0  0  0  0
   -4.4020   -2.4290   -2.8910 C   0  0  0  0  0  0  0  0  0  0  0  0
   -4.0180    3.3360   -1.6090 C   0  0  0  0  0  0  0  0  0  0  0  0
   -3.2230    4.4220   -1.3370 C   0  0  0  0  0  0  0  0  0  0  0  0
   -2.0580    4.2900   -0.5880 C   0  0  0  0  0  0  0  0  0  0  0  0
   -1.3890    5.4360   -0.3680 F   0  0  0  0  0  0  0  0  0  0  0  0
  1  2  1  0
  2  3  1  0
  3  4  2  0
  3 20  1  0
  4  5  1  0
  5  6  2  0
  6  7  1  0
  6 19  1  0
  7  8  1  0
  8  9  2  0
  8 10  1  0
 10 11  1  0
 11 12  2  0
 11 17  1  0
 12 13  1  0
 13 14  2  0
 14 15  1  0
 15 16  1  0
 15 17  1  0
 17 18  2  0
 19 20  2  0
 20 21  1  0
 21 22  1  0
 22 23  2  0
 22 40  1  0
 23 24  1  0
 24 25  1  0
 24 38  2  0
 25 26  1  1
 25 32  1  0
 26 27  1  0
 27 28  2  0
 29 27  1  6
 29 30  1  0
 29 31  1  0
 30 31  1  0
 32 33  1  0
 33 34  2  0
 33 37  1  0
 34 35  1  0
 35 36  2  0
 36 37  2  0
 38 39  1  0
 39 40  2  0
 40 41  1  0
M  END
