
     RDKit          3D

 46 49  0  0  0  0  0  0  0  0999 V2000
    0.8910    7.4480    0.3790 C   0  0  0  0  0  0  0  0  0  0  0  0
    0.2170    6.1880    0.7240 C   0  0  0  0  0  0  0  0  0  0  0  0
    0.5040    5.0640    0.0990 C   0  0  0  0  0  0  0  0  0  0  0  0
    1.5040    5.0720   -0.9500 C   0  0  0  0  0  0  0  0  0  0  0  0
    2.4730    4.1940   -1.1270 C   0  0  0  0  0  0  0  0  0  0  0  0
    2.7490    3.0100   -0.2900 C   0  0  0  0  0  0  0  0  0  0  0  0
    3.9910    2.4890   -0.5980 O   0  0  0  0  0  0  0  0  0  0  0  0
    4.9160    1.6380   -0.0430 C   0  0  0  0  0  0  0  0  0  0  0  0
    4.7490    0.3750    0.5070 C   0  0  0  0  0  0  0  0  0  0  0  0
    5.8510   -0.2710    1.0010 C   0  0  0  0  0  0  0  0  0  0  0  0
    7.1070    0.3850    0.9240 C   0  0  0  0  0  0  0  0  0  0  0  0
    8.1810   -0.1660    1.3720 O   0  0  0  0  0  0  0  0  0  0  0  0
    7.2960    1.5940    0.4010 N   0  0  0  0  0  0  0  0  0  0  0  0
    6.2060    2.2060   -0.0760 C   0  0  0  0  0  0  0  0  0  0  0  0
    6.4570    3.4920   -0.6270 O   0  0  0  0  0  0  0  0  0  0  0  0
    6.0300   -1.5770    1.6380 C   0  0  0  0  0  0  0  0  0  0  0  0
    6.8480   -1.6880    2.6650 O   0  0  0  0  0  0  0  0  0  0  0  0
    5.4590   -2.8500    1.3520 N   0  0  0  0  0  0  0  0  0  0  0  0
    5.2060   -3.3210   -0.0190 C   0  0  1  0  0  0  0  0  0  0  0  0
    6.4140   -4.1320   -0.4250 C   0  0  0  0  0  0  0  0  0  0  0  0
    4.0240   -4.2310   -0.0350 C   0  0  0  0  0  0  0  0  0  0  0  0
    3.8890   -5.5690   -0.2920 C   0  0  0  0  0  0  0  0  0  0  0  0
    2.5540   -5.8630   -0.1580 C   0  0  0  0  0  0  0  0  0  0  0  0
    1.9580   -4.6720    0.1750 C   0  0  0  0  0  0  0  0  0  0  0  0
    2.8570   -3.7440    0.2370 O   0  0  0  0  0  0  0  0  0  0  0  0
    0.5280   -4.3130    0.4580 C   0  0  0  0  0  0  0  0  0  0  0  0
    0.4110   -2.7820    0.5200 C   0  0  0  0  0  0  0  0  0  0  0  0
    0.3990   -2.2150   -0.8520 C   0  0  0  0  0  0  0  0  0  0  0  0
    1.4800   -2.3390   -1.4990 O   0  0  0  0  0  0  0  0  0  0  0  0
   -0.7030   -1.6200   -1.3370 O   0  0  0  0  0  0  0  0  0  0  0  0
   -1.3620   -0.4450   -1.0910 C   0  0  1  0  0  0  0  0  0  0  0  0
   -2.6500   -0.6230   -0.3560 C   0  0  0  0  0  0  0  0  0  0  0  0
   -3.3780    0.5740    0.0640 C   0  0  2  0  0  0  0  0  0  0  0  0
   -4.5260    0.8290   -0.9190 C   0  0  0  0  0  0  0  0  0  0  0  0
   -5.4600   -0.2530   -0.9800 N   0  0  0  0  0  0  0  0  0  0  0  0
   -5.7370   -0.8640    0.2910 C   0  0  0  0  0  0  0  0  0  0  0  0
   -7.0790   -1.5930    0.1510 C   0  0  2  0  0  0  0  0  0  0  0  0
   -7.4430   -2.2700    1.4650 C   0  0  0  0  0  0  0  0  0  0  0  0
   -7.0450   -2.6430   -0.9100 C   0  0  0  0  0  0  0  0  0  0  0  0
   -8.1900   -0.6210   -0.1720 C   0  0  0  0  0  0  0  0  0  0  0  0
   -2.6500    1.8390    0.3190 C   0  0  0  0  0  0  0  0  0  0  0  0
   -1.2470    1.7870   -0.2250 N   0  0  0  0  0  0  0  0  0  0  0  0
   -0.7890    3.0750   -0.6930 C   0  0  0  0  0  0  0  0  0  0  0  0
   -0.2350    3.8270    0.4940 C   0  0  0  0  0  0  0  0  0  0  0  0
   -0.5970    0.5430   -0.2300 C   0  0  0  0  0  0  0  0  0  0  0  0
    0.4280    0.0790    0.2940 O   0  0  0  0  0  0  0  0  0  0  0  0
  1  2  1  0
  2  3  2  3
  3  4  1  0
  3 44  1  0
  4  5  2  0
  5  6  1  0
  6  7  1  0
  7  8  1  0
  8  9  1  0
  8 14  2  0
  9 10  2  0
 10 11  1  0
 10 16  1  0
 11 12  2  0
 11 13  1  0
 13 14  1  0
 14 15  1  0
 16 17  2  0
 16 18  1  0
 18 19  1  0
 19 20  1  1
 19 21  1  0
 21 22  2  0
 21 25  1  0
 22 23  1  0
 23 24  2  0
 24 25  1  0
 24 26  1  0
 26 27  1  0
 27 28  1  0
 28 29  2  0
 28 30  1  0
 30 31  1  0
 31 32  1  1
 31 45  1  0
 32 33  1  0
 33 34  1  6
 33 41  1  0
 34 35  1  0
 35 36  1  0
 36 37  1  0
 37 38  1  1
 37 39  1  0
 37 40  1  0
 41 42  1  0
 42 43  1  0
 42 45  1  0
 43 44  1  0
 45 46  2  0
M  CHG  1  35   1
M  END
