
     RDKit          3D

 46 49  0  0  0  0  0  0  0  0999 V2000
   -4.6480   -0.0180   -3.5580 C   0  0  0  0  0  0  0  0  0  0  0  0
   -4.2350   -1.3620   -2.9780 C   0  0  0  0  0  0  0  0  0  0  0  0
   -4.1450   -1.1670   -1.4490 C   0  0  1  0  0  0  0  0  0  0  0  0
   -5.4720   -0.7420   -0.9830 C   0  0  0  0  0  0  0  0  0  0  0  0
   -5.8960    0.0510   -0.0770 C   0  0  0  0  0  0  0  0  0  0  0  0
   -5.2070    0.9190    0.9370 C   0  0  1  0  0  0  0  0  0  0  0  0
   -6.2940    1.0520    2.0530 C   0  0  0  0  0  0  0  0  0  0  0  0
   -7.4750    1.6570    1.4670 N   0  0  0  0  0  0  0  0  0  0  0  0
   -4.0140    0.3260    1.5360 C   0  0  2  0  0  0  0  0  0  0  0  0
   -4.3770   -0.3660    2.8800 C   0  0  0  0  0  0  0  0  0  0  0  0
   -2.7800    1.0840    1.6410 N   0  0  0  0  0  0  0  0  0  0  0  0
   -2.8710    2.5570    1.4030 C   0  0  2  0  0  0  0  0  0  0  0  0
   -3.7260    3.2570    2.4110 C   0  0  0  0  0  0  0  0  0  0  0  0
   -3.0550    2.9320    0.0140 C   0  0  0  0  0  0  0  0  0  0  0  0
   -2.9510    2.1220   -0.9220 O   0  0  0  0  0  0  0  0  0  0  0  0
   -3.3600    4.2490   -0.2840 O   0  0  0  0  0  0  0  0  0  0  0  0
   -1.5240    0.5560    2.0100 C   0  0  0  0  0  0  0  0  0  0  0  0
   -1.1530    1.0900    3.1930 O   0  0  0  0  0  0  0  0  0  0  0  0
   -0.5720   -0.3870    1.4330 C   0  0  0  0  0  0  0  0  0  0  0  0
    0.7570   -0.0060    1.7540 C   0  0  0  0  0  0  0  0  0  0  0  0
    1.8720   -0.6240    1.2960 C   0  0  0  0  0  0  0  0  0  0  0  0
    1.7340   -1.6980    0.4570 C   0  0  0  0  0  0  0  0  0  0  0  0
    2.8010   -2.3020   -0.0020 O   0  0  0  0  0  0  0  0  0  0  0  0
    3.8240   -2.8110   -0.5070 C   0  0  0  0  0  0  0  0  0  0  0  0
    3.7000   -4.2110   -0.8360 C   0  0  0  0  0  0  0  0  0  0  0  0
    4.7010   -4.9370   -1.3790 C   0  0  0  0  0  0  0  0  0  0  0  0
    5.8940   -4.3290   -1.6340 C   0  0  0  0  0  0  0  0  0  0  0  0
    6.9870   -5.1560   -2.2320 C   0  0  0  0  0  0  0  0  0  0  0  0
    6.0610   -3.0160   -1.3450 C   0  0  0  0  0  0  0  0  0  0  0  0
    5.0290   -2.2470   -0.7840 C   0  0  0  0  0  0  0  0  0  0  0  0
    5.3420   -0.7950   -0.7100 C   0  0  0  0  0  0  0  0  0  0  0  0
    4.4460    0.1250   -0.7650 C   0  0  0  0  0  0  0  0  0  0  0  0
    4.5840    1.5440   -0.7040 C   0  0  0  0  0  0  0  0  0  0  0  0
    3.4050    2.1740   -0.7290 O   0  0  0  0  0  0  0  0  0  0  0  0
    5.6510    2.3950   -0.6250 N   0  0  0  0  0  0  0  0  0  0  0  0
    5.3320    3.8580   -0.4220 C   0  0  0  0  0  0  0  0  0  0  0  0
    6.5640    4.4270    0.2650 C   0  0  0  0  0  0  0  0  0  0  0  0
    7.0130    3.5090    1.1980 O   0  0  0  0  0  0  0  0  0  0  0  0
    7.7660    2.4990    0.5530 C   0  0  0  0  0  0  0  0  0  0  0  0
    7.0530    2.1170   -0.7460 C   0  0  0  0  0  0  0  0  0  0  0  0
    0.4460   -2.0990    0.1260 C   0  0  0  0  0  0  0  0  0  0  0  0
   -0.7340   -1.4670    0.6000 C   0  0  0  0  0  0  0  0  0  0  0  0
   -1.8600   -2.0510    0.1480 O   0  0  0  0  0  0  0  0  0  0  0  0
   -2.9740   -2.7200    0.2000 C   0  0  0  0  0  0  0  0  0  0  0  0
   -3.4960   -3.5630    1.0230 O   0  0  0  0  0  0  0  0  0  0  0  0
   -3.9050   -2.5170   -0.9030 N   0  0  0  0  0  0  0  0  0  0  0  0
  1  2  1  0
  3  2  1  6
  3  4  1  0
  3 46  1  0
  4  5  2  0
  5  6  1  0
  6  7  1  1
  6  9  1  0
  7  8  1  0
  9 10  1  1
  9 11  1  0
 11 12  1  0
 11 17  1  0
 12 13  1  1
 12 14  1  0
 14 15  2  0
 14 16  1  0
 17 18  2  0
 17 19  1  0
 19 20  2  0
 19 42  1  0
 20 21  1  0
 21 22  2  0
 22 23  1  0
 22 41  1  0
 23 24  1  0
 24 25  2  0
 24 30  1  0
 25 26  1  0
 26 27  2  0
 27 28  1  0
 27 29  1  0
 29 30  2  0
 30 31  1  0
 31 32  2  3
 32 33  1  0
 33 34  2  0
 33 35  1  0
 35 36  1  0
 35 40  1  0
 36 37  1  0
 37 38  1  0
 38 39  1  0
 39 40  1  0
 41 42  2  0
 42 43  1  0
 43 44  1  0
 44 45  2  0
 44 46  1  0
M  CHG  1   8   1
M  END
