
     RDKit          3D

 46 49  0  0  0  0  0  0  0  0999 V2000
   -1.5740   -0.1320    3.4590 C   0  0  0  0  0  0  0  0  0  0  0  0
   -2.2900    0.1930    2.1840 C   0  0  0  0  0  0  0  0  0  0  0  0
   -3.4490   -0.4860    1.8680 C   0  0  0  0  0  0  0  0  0  0  0  0
   -4.1730   -0.2330    0.7060 C   0  0  0  0  0  0  0  0  0  0  0  0
   -3.6640    0.7540   -0.1290 C   0  0  0  0  0  0  0  0  0  0  0  0
   -2.4960    1.4150    0.2190 C   0  0  0  0  0  0  0  0  0  0  0  0
   -1.7730    1.1660    1.3700 C   0  0  0  0  0  0  0  0  0  0  0  0
   -0.5190    1.9110    1.6510 C   0  0  0  0  0  0  0  0  0  0  0  0
    0.6870    1.1450    1.3610 C   0  0  0  0  0  0  0  0  0  0  0  0
    0.9160    0.0700    1.9580 O   0  0  0  0  0  0  0  0  0  0  0  0
    1.6320    1.5900    0.3980 N   0  0  0  0  0  0  0  0  0  0  0  0
    1.3550    2.8450   -0.2930 C   0  0  0  0  0  0  0  0  0  0  0  0
    2.8390    0.8400    0.0940 C   0  0  0  0  0  0  0  0  0  0  0  0
    4.0100    1.2830    0.9800 C   0  0  2  0  0  0  0  0  0  0  0  0
    4.2840    2.6210    0.7790 O   0  0  0  0  0  0  0  0  0  0  0  0
    5.2190    0.4730    0.6330 C   0  0  0  0  0  0  0  0  0  0  0  0
    5.1290   -0.7530    0.8050 O   0  0  0  0  0  0  0  0  0  0  0  0
    6.3920    1.0820    0.1370 N   0  0  0  0  0  0  0  0  0  0  0  0
    7.5740    0.3910   -0.2100 C   0  0  0  0  0  0  0  0  0  0  0  0
    8.5520    1.0850   -0.9430 C   0  0  0  0  0  0  0  0  0  0  0  0
    9.7290    0.5040   -1.3140 C   0  0  0  0  0  0  0  0  0  0  0  0
   10.7010    1.3260   -2.0880 C   0  0  0  0  0  0  0  0  0  0  0  0
    9.9740   -0.8110   -0.9600 C   0  0  0  0  0  0  0  0  0  0  0  0
    9.0560   -1.5300   -0.2480 C   0  0  0  0  0  0  0  0  0  0  0  0
    7.8650   -0.9080    0.1150 C   0  0  0  0  0  0  0  0  0  0  0  0
    9.5990   -2.8900   -0.0230 C   0  0  2  0  0  0  0  0  0  0  0  0
    9.5720   -3.1360    1.4810 C   0  0  0  0  0  0  0  0  0  0  0  0
   11.0190   -2.7780   -0.4640 C   0  0  0  0  0  0  0  0  0  0  0  0
   11.1290   -1.5770   -1.2550 N   0  0  0  0  0  0  0  0  0  0  0  0
   -4.3180    1.2060   -1.3590 C   0  0  0  0  0  0  0  0  0  0  0  0
   -3.5760    1.2880   -2.3970 O   0  0  0  0  0  0  0  0  0  0  0  0
   -5.6750    1.5590   -1.5120 N   0  0  0  0  0  0  0  0  0  0  0  0
   -6.4800    2.2490   -0.5320 C   0  0  0  0  0  0  0  0  0  0  0  0
   -7.9310    2.2050   -0.9030 C   0  0  0  0  0  0  0  0  0  0  0  0
   -8.6920    1.8860    0.2090 O   0  0  0  0  0  0  0  0  0  0  0  0
   -9.9460    1.4010   -0.0670 C   0  0  0  0  0  0  0  0  0  0  0  0
   -9.9800   -0.0310   -0.4970 C   0  0  0  0  0  0  0  0  0  0  0  0
   -9.6830   -1.0080    0.6050 C   0  0  0  0  0  0  0  0  0  0  0  0
   -8.2980   -0.9140    1.1430 C   0  0  0  0  0  0  0  0  0  0  0  0
   -7.6220   -2.1580    1.1620 O   0  0  0  0  0  0  0  0  0  0  0  0
   -6.8320   -2.6790    0.1850 C   0  0  0  0  0  0  0  0  0  0  0  0
   -7.0220   -3.8470   -0.2490 O   0  0  0  0  0  0  0  0  0  0  0  0
   -5.6750   -1.9220   -0.4600 C   0  0  2  0  0  0  0  0  0  0  0  0
   -6.2030   -1.5330   -1.8080 C   0  0  0  0  0  0  0  0  0  0  0  0
   -4.5790   -2.9650   -0.7500 C   0  0  0  0  0  0  0  0  0  0  0  0
   -5.3150   -0.9280    0.4120 O   0  0  0  0  0  0  0  0  0  0  0  0
  1  2  1  0
  2  3  2  0
  2  7  1  0
  3  4  1  0
  4  5  2  0
  4 46  1  0
  5  6  1  0
  5 30  1  0
  6  7  2  0
  7  8  1  0
  8  9  1  0
  9 10  2  0
  9 11  1  0
 11 12  1  0
 11 13  1  0
 13 14  1  0
 14 15  1  6
 14 16  1  0
 16 17  2  0
 16 18  1  0
 18 19  1  0
 19 20  2  0
 19 25  1  0
 20 21  1  0
 21 22  1  0
 21 23  2  0
 23 24  1  0
 23 29  1  0
 24 25  2  0
 24 26  1  0
 26 27  1  1
 26 28  1  0
 28 29  1  0
 30 31  2  0
 30 32  1  0
 32 33  1  0
 33 34  1  0
 34 35  1  0
 35 36  1  0
 36 37  1  0
 37 38  1  0
 38 39  1  0
 39 40  1  0
 40 41  1  0
 41 42  2  0
 41 43  1  0
 43 44  1  6
 43 45  1  0
 43 46  1  0
M  CHG  1  29   1
M  END
