
     RDKit          3D

 46 49  0  0  0  0  0  0  0  0999 V2000
    1.7430   -4.6200   -0.3990 C   0  0  0  0  0  0  0  0  0  0  0  0
    1.8230   -3.2470   -0.3390 C   0  0  0  0  0  0  0  0  0  0  0  0
    1.1710   -2.6650    0.6860 O   0  0  0  0  0  0  0  0  0  0  0  0
   -0.0940   -2.0020    0.8330 C   0  0  0  0  0  0  0  0  0  0  0  0
   -1.0910   -2.3120   -0.2020 C   0  0  1  0  0  0  0  0  0  0  0  0
   -0.9160   -3.7210   -0.4430 O   0  0  0  0  0  0  0  0  0  0  0  0
   -2.5380   -2.1720    0.0280 C   0  0  1  0  0  0  0  0  0  0  0  0
   -3.2090   -3.4570    0.3680 C   0  0  0  0  0  0  0  0  0  0  0  0
   -2.7850   -4.2330    1.5490 C   0  0  0  0  0  0  0  0  0  0  0  0
   -2.8330   -3.6490    2.8940 C   0  0  0  0  0  0  0  0  0  0  0  0
   -3.1030   -0.9580    0.5620 N   0  0  0  0  0  0  0  0  0  0  0  0
   -4.5410   -0.9280    0.6860 C   0  0  0  0  0  0  0  0  0  0  0  0
   -5.0830   -1.3260    2.0330 C   0  0  0  0  0  0  0  0  0  0  0  0
   -2.3860    0.2080    0.9600 C   0  0  0  0  0  0  0  0  0  0  0  0
   -2.4220    0.2840    2.2900 O   0  0  0  0  0  0  0  0  0  0  0  0
   -1.7220    1.1900    0.3440 O   0  0  0  0  0  0  0  0  0  0  0  0
   -1.8350    2.0980   -0.6880 C   0  0  0  0  0  0  0  0  0  0  0  0
   -2.4040    3.4230   -0.5100 N   0  0  0  0  0  0  0  0  0  0  0  0
   -1.9480    4.4010    0.4170 C   0  0  0  0  0  0  0  0  0  0  0  0
   -3.2720    5.0180    0.8720 C   0  0  0  0  0  0  0  0  0  0  0  0
   -4.3690    4.3700    0.0390 C   0  0  0  0  0  0  0  0  0  0  0  0
   -3.5320    3.9390   -1.2020 C   0  0  1  0  0  0  0  0  0  0  0  0
   -3.2890    5.2010   -1.9690 C   0  0  0  0  0  0  0  0  0  0  0  0
   -1.4440    1.8600   -1.9270 C   0  0  0  0  0  0  0  0  0  0  0  0
   -1.6220    2.9190   -2.9400 N   0  0  0  0  0  0  0  0  0  0  0  0
   -0.8420    0.6810   -2.5040 C   0  0  0  0  0  0  0  0  0  0  0  0
   -1.5200    0.1180   -3.4850 O   0  0  0  0  0  0  0  0  0  0  0  0
    0.3360    0.0650   -2.1790 O   0  0  0  0  0  0  0  0  0  0  0  0
    1.6040    0.5470   -1.9840 C   0  0  0  0  0  0  0  0  0  0  0  0
    2.0040    0.7060   -0.5790 C   0  0  0  0  0  0  0  0  0  0  0  0
    1.2300    1.3200    0.1980 O   0  0  0  0  0  0  0  0  0  0  0  0
    3.2400    0.2190    0.0300 N   0  0  0  0  0  0  0  0  0  0  0  0
    3.3720    0.5050    1.4210 C   0  0  0  0  0  0  0  0  0  0  0  0
    3.5840    1.8990    1.9350 C   0  0  2  0  0  0  0  0  0  0  0  0
    3.6980    1.9140    3.4700 C   0  0  0  0  0  0  0  0  0  0  0  0
    2.5150    2.5010    2.8160 C   0  0  0  0  0  0  0  0  0  0  0  0
    4.1450   -0.6290   -0.6860 C   0  0  0  0  0  0  0  0  0  0  0  0
    3.8400   -1.7830   -1.2800 C   0  0  0  0  0  0  0  0  0  0  0  0
    2.6240   -2.5770   -1.4140 C   0  0  0  0  0  0  0  0  0  0  0  0
    2.1600   -2.8310   -2.6550 C   0  0  0  0  0  0  0  0  0  0  0  0
    4.9910   -2.3120   -2.1080 C   0  0  0  0  0  0  0  0  0  0  0  0
    4.7780   -2.8160   -3.2420 O   0  0  0  0  0  0  0  0  0  0  0  0
    6.3960   -2.2760   -1.6650 C   0  0  0  0  0  0  0  0  0  0  0  0
    6.5610   -0.9650   -0.9940 C   0  0  0  0  0  0  0  0  0  0  0  0
    5.5700   -0.2190   -0.5500 C   0  0  0  0  0  0  0  0  0  0  0  0
    5.8250    1.0820    0.1060 C   0  0  0  0  0  0  0  0  0  0  0  0
  1  2  2  0
  2  3  1  0
  2 39  1  0
  3  4  1  0
  4  5  1  0
  5  6  1  1
  5  7  1  0
  7  8  1  1
  7 11  1  0
  8  9  1  0
  9 10  1  0
 11 12  1  0
 11 14  1  0
 12 13  1  0
 14 15  2  0
 14 16  1  0
 16 17  1  0
 17 18  1  0
 17 24  2  0
 18 19  1  0
 18 22  1  0
 19 20  1  0
 20 21  1  0
 21 22  1  0
 22 23  1  6
 24 25  1  0
 24 26  1  0
 26 27  2  0
 26 28  1  0
 28 29  1  0
 29 30  1  0
 30 31  2  0
 30 32  1  0
 32 33  1  0
 32 37  1  0
 34 33  1  1
 34 35  1  0
 34 36  1  0
 35 36  1  0
 37 38  2  0
 37 45  1  0
 38 39  1  0
 38 41  1  0
 39 40  2  0
 41 42  2  0
 41 43  1  0
 43 44  1  0
 44 45  2  0
 45 46  1  0
M  END
