
     RDKit          3D

 46 48  0  0  0  0  0  0  0  0999 V2000
   -1.0380   -5.2390    0.7100 C   0  0  0  0  0  0  0  0  0  0  0  0
   -0.3830   -4.3210    0.7770 C   0  0  0  0  0  0  0  0  0  0  0  0
    0.5280   -3.0390    0.8510 C   0  0  2  0  0  0  0  0  0  0  0  0
    1.2970   -3.1340    2.0360 N   0  0  0  0  0  0  0  0  0  0  0  0
    2.3860   -2.2690    2.3620 C   0  0  0  0  0  0  0  0  0  0  0  0
    2.2870   -1.8330    3.6060 O   0  0  0  0  0  0  0  0  0  0  0  0
    3.4860   -1.8050    1.7220 N   0  0  0  0  0  0  0  0  0  0  0  0
    3.9260   -1.0680    0.6220 C   0  0  0  0  0  0  0  0  0  0  0  0
    5.0670   -1.6170    0.0500 C   0  0  0  0  0  0  0  0  0  0  0  0
    5.6510   -0.9140   -1.0860 C   0  0  0  0  0  0  0  0  0  0  0  0
    5.8190   -1.2750   -2.3490 C   0  0  0  0  0  0  0  0  0  0  0  0
    6.5340   -0.4590   -3.2680 C   0  0  0  0  0  0  0  0  0  0  0  0
    7.0750    0.7300   -2.8360 C   0  0  0  0  0  0  0  0  0  0  0  0
    6.9250    1.1370   -1.5400 C   0  0  0  0  0  0  0  0  0  0  0  0
    6.2450    0.3710   -0.6570 C   0  0  0  0  0  0  0  0  0  0  0  0
    6.0710    0.6840    0.5810 O   0  0  0  0  0  0  0  0  0  0  0  0
    5.9810    1.1260    1.7790 C   0  0  0  0  0  0  0  0  0  0  0  0
    3.3140    0.0950   -0.0360 C   0  0  0  0  0  0  0  0  0  0  0  0
    3.7100    0.1560   -1.2910 O   0  0  0  0  0  0  0  0  0  0  0  0
    2.4550    1.1190    0.3470 N   0  0  0  0  0  0  0  0  0  0  0  0
    1.0290    1.0320    0.7390 C   0  0  1  0  0  0  0  0  0  0  0  0
    0.7350    2.1910    1.6680 C   0  0  0  0  0  0  0  0  0  0  0  0
    0.0900    0.9310   -0.3700 C   0  0  0  0  0  0  0  0  0  0  0  0
    0.8430    0.4760   -1.6790 C   0  0  0  0  0  0  0  0  0  0  0  0
   -1.1580    1.1500   -0.5160 C   0  0  0  0  0  0  0  0  0  0  0  0
   -2.2320    1.6180    0.3770 C   0  0  0  0  0  0  0  0  0  0  0  0
   -2.7250    2.8590    0.2600 C   0  0  0  0  0  0  0  0  0  0  0  0
   -2.5420    4.0450   -0.5130 C   0  0  2  0  0  0  0  0  0  0  0  0
   -1.3290    4.0500   -1.4470 C   0  0  0  0  0  0  0  0  0  0  0  0
   -2.2420    5.2010    0.5160 C   0  0  0  0  0  0  0  0  0  0  0  0
   -2.0560    6.4050   -0.2130 N   0  0  0  0  0  0  0  0  0  0  0  0
   -2.7760    0.8850    1.5220 C   0  0  0  0  0  0  0  0  0  0  0  0
   -3.5560   -0.2050    1.4340 O   0  0  0  0  0  0  0  0  0  0  0  0
   -3.7930   -1.2620    0.6400 C   0  0  0  0  0  0  0  0  0  0  0  0
   -5.1290   -1.6700    0.4440 C   0  0  0  0  0  0  0  0  0  0  0  0
   -5.3980   -2.7610   -0.3830 C   0  0  0  0  0  0  0  0  0  0  0  0
   -6.7610   -3.3850   -0.3650 C   0  0  0  0  0  0  0  0  0  0  0  0
   -7.5870   -2.9070    0.4210 O   0  0  0  0  0  0  0  0  0  0  0  0
   -7.0310   -4.4340   -1.1860 O   0  0  0  0  0  0  0  0  0  0  0  0
   -8.2530   -5.0910   -1.2240 C   0  0  0  0  0  0  0  0  0  0  0  0
   -4.4200   -3.4440   -1.0370 C   0  0  0  0  0  0  0  0  0  0  0  0
   -3.0960   -3.0530   -0.8550 C   0  0  0  0  0  0  0  0  0  0  0  0
   -2.8010   -1.9720   -0.0040 C   0  0  0  0  0  0  0  0  0  0  0  0
   -1.4640   -1.6260    0.2310 O   0  0  0  0  0  0  0  0  0  0  0  0
   -0.6110   -2.0260    1.2080 C   0  0  0  0  0  0  0  0  0  0  0  0
   -0.6030   -1.6850    2.4250 O   0  0  0  0  0  0  0  0  0  0  0  0
  1  2  3  0
  3  2  1  1
  3  4  1  0
  3 45  1  0
  4  5  1  0
  5  6  2  0
  5  7  1  0
  7  8  1  0
  8  9  2  3
  8 18  1  0
  9 10  1  0
 10 11  2  0
 10 15  1  0
 11 12  1  0
 12 13  2  0
 13 14  1  0
 14 15  2  0
 15 16  1  0
 16 17  1  0
 18 19  2  0
 18 20  1  0
 20 21  1  0
 21 22  1  6
 21 23  1  0
 23 24  1  0
 23 25  2  0
 25 26  1  0
 26 27  2  3
 26 32  1  0
 27 28  1  0
 28 29  1  6
 28 30  1  0
 30 31  1  0
 32 33  1  0
 33 34  1  0
 34 35  2  0
 34 43  1  0
 35 36  1  0
 36 37  1  0
 36 41  2  0
 37 38  2  0
 37 39  1  0
 39 40  1  0
 41 42  1  0
 42 43  2  0
 43 44  1  0
 44 45  1  0
 45 46  2  0
M  CHG  1  31   1
M  END
