
     RDKit          3D

 46 48  0  0  0  0  0  0  0  0999 V2000
   -3.6770   -0.7900    4.5870 C   0  0  0  0  0  0  0  0  0  0  0  0
   -3.2210   -0.6340    3.1850 C   0  0  0  0  0  0  0  0  0  0  0  0
   -2.9460    0.5490    2.6510 C   0  0  0  0  0  0  0  0  0  0  0  0
   -2.4960    0.6260    1.2420 C   0  0  0  0  0  0  0  0  0  0  0  0
   -2.3360   -0.4310    0.5850 C   0  0  0  0  0  0  0  0  0  0  0  0
   -2.8720   -1.0460   -0.3480 C   0  0  0  0  0  0  0  0  0  0  0  0
   -4.3150   -1.1390   -0.4440 C   0  0  0  0  0  0  0  0  0  0  0  0
   -4.9310   -2.2340   -0.8660 C   0  0  0  0  0  0  0  0  0  0  0  0
   -6.4080   -2.2370   -0.9320 C   0  0  0  0  0  0  0  0  0  0  0  0
   -6.9710   -3.2240   -0.1230 O   0  0  0  0  0  0  0  0  0  0  0  0
   -2.0760   -1.7130   -1.3990 C   0  0  0  0  0  0  0  0  0  0  0  0
   -1.1370   -2.7390   -0.9430 C   0  0  1  0  0  0  0  0  0  0  0  0
   -1.1870   -3.0230    0.5510 C   0  0  0  0  0  0  0  0  0  0  0  0
   -1.5920   -4.0820   -1.5630 C   0  0  0  0  0  0  0  0  0  0  0  0
    0.2960   -2.5720   -1.2970 C   0  0  0  0  0  0  0  0  0  0  0  0
    0.6210   -1.5830   -2.2890 N   0  0  0  0  0  0  0  0  0  0  0  0
    1.8350   -0.8470   -2.3650 C   0  0  0  0  0  0  0  0  0  0  0  0
    2.3110   -0.5360   -3.5310 O   0  0  0  0  0  0  0  0  0  0  0  0
    2.6330   -0.3900   -1.2910 N   0  0  0  0  0  0  0  0  0  0  0  0
    4.0790   -0.6720   -1.4760 C   0  0  0  0  0  0  0  0  0  0  0  0
    4.4650   -2.0190   -0.9150 C   0  0  1  0  0  0  0  0  0  0  0  0
    3.7230   -3.1620   -1.5650 C   0  0  0  0  0  0  0  0  0  0  0  0
    5.9420   -2.1950   -1.2420 C   0  0  0  0  0  0  0  0  0  0  0  0
    4.2960   -2.0870    0.5530 C   0  0  0  0  0  0  0  0  0  0  0  0
    3.4780   -2.9320    1.0540 O   0  0  0  0  0  0  0  0  0  0  0  0
    4.9750   -1.2840    1.4260 O   0  0  0  0  0  0  0  0  0  0  0  0
    4.7950   -1.3670    2.8450 C   0  0  0  0  0  0  0  0  0  0  0  0
    2.2250    0.2850   -0.1100 C   0  0  0  0  0  0  0  0  0  0  0  0
    1.4340    1.5380   -0.2420 C   0  0  2  0  0  0  0  0  0  0  0  0
    1.5990    2.3150   -1.4920 C   0  0  0  0  0  0  0  0  0  0  0  0
    2.9490    2.9930   -1.2270 C   0  0  0  0  0  0  0  0  0  0  0  0
    2.8160    3.2460    0.2530 C   0  0  1  0  0  0  0  0  0  0  0  0
    4.1150    3.1460    0.9930 C   0  0  0  0  0  0  0  0  0  0  0  0
    2.3390    4.6950    0.4100 C   0  0  0  0  0  0  0  0  0  0  0  0
    1.8260    2.4370    0.7600 O   0  0  0  0  0  0  0  0  0  0  0  0
   -0.0070    1.1820    0.0990 C   0  0  0  0  0  0  0  0  0  0  0  0
   -0.9510    2.3030   -0.0140 C   0  0  1  0  0  0  0  0  0  0  0  0
   -1.3730    2.4900   -1.3560 O   0  0  0  0  0  0  0  0  0  0  0  0
   -2.2320    1.9370    0.7030 C   0  0  0  0  0  0  0  0  0  0  0  0
   -3.1440    2.9210    0.7700 C   0  0  0  0  0  0  0  0  0  0  0  0
   -2.9380    4.2360    0.2650 N   0  0  0  0  0  0  0  0  0  0  0  0
   -3.9910    4.9620    0.4200 C   0  0  0  0  0  0  0  0  0  0  0  0
   -4.1070    6.3110    0.0240 N   0  0  0  0  0  0  0  0  0  0  0  0
   -4.9930    4.2210    1.0340 O   0  0  0  0  0  0  0  0  0  0  0  0
   -4.5020    2.9300    1.2720 C   0  0  0  0  0  0  0  0  0  0  0  0
   -5.1070    1.9840    1.8010 O   0  0  0  0  0  0  0  0  0  0  0  0
  1  2  1  0
  2  3  2  3
  3  4  1  0
  4  5  2  0
  4 39  1  0
  5  6  2  0
  6  7  1  0
  6 11  1  0
  7  8  2  3
  8  9  1  0
  9 10  1  0
 11 12  1  0
 12 13  1  1
 12 14  1  0
 12 15  1  0
 15 16  1  0
 16 17  1  0
 17 18  2  0
 17 19  1  0
 19 20  1  0
 19 28  1  0
 20 21  1  0
 21 22  1  6
 21 23  1  0
 21 24  1  0
 24 25  2  0
 24 26  1  0
 26 27  1  0
 29 28  1  6
 29 30  1  0
 29 35  1  0
 29 36  1  0
 30 31  1  0
 31 32  1  0
 32 33  1  1
 32 34  1  0
 32 35  1  0
 36 37  1  0
 37 38  1  6
 37 39  1  0
 39 40  2  3
 40 41  1  0
 40 45  1  0
 41 42  2  0
 42 43  1  0
 42 44  1  0
 44 45  1  0
 45 46  2  0
M  END
