
     RDKit          3D

 36 40  0  0  0  0  0  0  0  0999 V2000
   -3.6310    0.1010   -2.0350 C   0  0  0  0  0  0  0  0  0  0  0  0
   -2.9080    0.3350   -0.7470 C   0  0  0  0  0  0  0  0  0  0  0  0
   -1.8110   -0.4900   -0.4490 C   0  0  0  0  0  0  0  0  0  0  0  0
   -1.1380   -0.2920    0.7280 C   0  0  0  0  0  0  0  0  0  0  0  0
   -0.0100   -1.1540    1.0890 C   0  0  0  0  0  0  0  0  0  0  0  0
   -0.0580   -2.4870    1.1470 C   0  0  0  0  0  0  0  0  0  0  0  0
   -1.1790   -3.4090    0.8860 C   0  0  0  0  0  0  0  0  0  0  0  0
   -2.3310   -3.0040    0.5680 O   0  0  0  0  0  0  0  0  0  0  0  0
   -0.9110   -4.8140    1.0130 N   0  0  0  0  0  0  0  0  0  0  0  0
   -2.0460   -5.7010    0.7480 C   0  0  0  0  0  0  0  0  0  0  0  0
    0.3590   -5.2880    1.3690 C   0  0  0  0  0  0  0  0  0  0  0  0
    0.5210   -6.5390    1.4430 O   0  0  0  0  0  0  0  0  0  0  0  0
    1.5260   -4.4410    1.6640 C   0  0  0  0  0  0  0  0  0  0  0  0
    1.2440   -3.0030    1.5160 C   0  0  0  0  0  0  0  0  0  0  0  0
    2.0370   -2.0010    1.6750 N   0  0  0  0  0  0  0  0  0  0  0  0
    1.3620   -0.7610    1.4370 C   0  0  1  0  0  0  0  0  0  0  0  0
    2.0220    0.0750    0.3680 C   0  0  0  0  0  0  0  0  0  0  0  0
    3.4390    0.4570    0.7700 C   0  0  0  0  0  0  0  0  0  0  0  0
    4.0800    1.2840   -0.2980 C   0  0  0  0  0  0  0  0  0  0  0  0
    3.4360    1.5670   -1.3340 O   0  0  0  0  0  0  0  0  0  0  0  0
    5.4050    1.7620   -0.1710 N   0  0  0  0  0  0  0  0  0  0  0  0
    6.1150    1.4210    1.0710 C   0  0  0  0  0  0  0  0  0  0  0  0
    6.1200    2.5260   -1.1360 C   0  0  0  0  0  0  0  0  0  0  0  0
    6.9470    1.7420   -2.1090 C   0  0  2  0  0  0  0  0  0  0  0  0
    6.3560    0.7300   -3.0360 C   0  0  0  0  0  0  0  0  0  0  0  0
    7.2160    0.2980   -1.8650 C   0  0  0  0  0  0  0  0  0  0  0  0
   -1.5500    0.7080    1.5830 C   0  0  0  0  0  0  0  0  0  0  0  0
   -2.6260    1.5170    1.2880 C   0  0  0  0  0  0  0  0  0  0  0  0
   -3.0120    2.5710    2.2560 C   0  0  0  0  0  0  0  0  0  0  0  0
   -3.3300    1.3350    0.0980 C   0  0  0  0  0  0  0  0  0  0  0  0
   -4.4440    2.1430   -0.2460 N   0  0  0  0  0  0  0  0  0  0  0  0
   -5.7790    1.8200    0.1140 C   0  0  0  0  0  0  0  0  0  0  0  0
   -5.9830    0.7800    0.7610 O   0  0  0  0  0  0  0  0  0  0  0  0
   -6.8940    2.7120   -0.2800 C   0  0  1  0  0  0  0  0  0  0  0  0
   -8.2520    2.1950   -0.5530 C   0  0  0  0  0  0  0  0  0  0  0  0
   -7.9950    2.9870    0.7070 C   0  0  0  0  0  0  0  0  0  0  0  0
  1  2  1  0
  2  3  2  0
  2 30  1  0
  3  4  1  0
  4  5  1  0
  4 27  2  0
  5  6  2  0
  5 16  1  0
  6  7  1  0
  6 14  1  0
  7  8  2  0
  7  9  1  0
  9 10  1  0
  9 11  1  0
 11 12  2  0
 11 13  1  0
 13 14  1  0
 14 15  2  0
 15 16  1  0
 16 17  1  6
 17 18  1  0
 18 19  1  0
 19 20  2  0
 19 21  1  0
 21 22  1  0
 21 23  1  0
 24 23  1  1
 24 25  1  0
 24 26  1  0
 25 26  1  0
 27 28  1  0
 28 29  1  0
 28 30  2  0
 30 31  1  0
 31 32  1  0
 32 33  2  0
 34 32  1  1
 34 35  1  0
 34 36  1  0
 35 36  1  0
M  END
