
     RDKit          3D

 36 40  0  0  0  0  0  0  0  0999 V2000
    7.1170   -1.9130   -0.6050 C   0  0  0  0  0  0  0  0  0  0  0  0
    6.3130   -0.6540   -0.7390 C   0  0  0  0  0  0  0  0  0  0  0  0
    4.8400   -1.0710   -0.7550 C   0  0  0  0  0  0  0  0  0  0  0  0
    4.0450    0.1960   -0.8900 C   0  0  0  0  0  0  0  0  0  0  0  0
    2.6130   -0.0070   -0.9270 N   0  0  0  0  0  0  0  0  0  0  0  0
    1.9330   -0.5890    0.1310 C   0  0  0  0  0  0  0  0  0  0  0  0
    2.6260   -0.9410    1.1160 O   0  0  0  0  0  0  0  0  0  0  0  0
    0.5420   -0.8130    0.1980 C   0  0  0  0  0  0  0  0  0  0  0  0
    0.0920   -1.6470    1.1680 C   0  0  0  0  0  0  0  0  0  0  0  0
   -1.2480   -2.1520    1.5660 C   0  0  0  0  0  0  0  0  0  0  0  0
   -2.3350   -2.4460    0.8450 C   0  0  0  0  0  0  0  0  0  0  0  0
   -3.4570   -2.9150    1.5790 N   0  0  0  0  0  0  0  0  0  0  0  0
   -4.1590   -4.1270    1.5050 C   0  0  0  0  0  0  0  0  0  0  0  0
   -5.1140   -4.1390    2.3540 N   0  0  0  0  0  0  0  0  0  0  0  0
   -5.1900   -2.9360    3.1210 C   0  0  0  0  0  0  0  0  0  0  0  0
   -4.0760   -2.1140    2.6000 C   0  0  0  0  0  0  0  0  0  0  0  0
   -3.7410   -0.9490    2.9760 O   0  0  0  0  0  0  0  0  0  0  0  0
   -2.5800   -2.3610   -0.6220 C   0  0  0  0  0  0  0  0  0  0  0  0
   -2.2160   -1.5420   -1.6120 C   0  0  0  0  0  0  0  0  0  0  0  0
   -1.3630   -0.3390   -1.5150 C   0  0  0  0  0  0  0  0  0  0  0  0
   -0.2720   -0.0150   -0.7060 C   0  0  0  0  0  0  0  0  0  0  0  0
    0.2580    1.1820   -0.7150 N   0  0  0  0  0  0  0  0  0  0  0  0
    1.2720    1.5320    0.2710 C   0  0  0  0  0  0  0  0  0  0  0  0
    0.6290    2.0390    1.5350 C   0  0  1  0  0  0  0  0  0  0  0  0
   -0.2310    3.2500    1.2840 C   0  0  0  0  0  0  0  0  0  0  0  0
   -0.8050    3.3130    2.7270 C   0  0  0  0  0  0  0  0  0  0  0  0
   -1.0960    1.8370    2.9150 C   0  0  0  0  0  0  0  0  0  0  0  0
   -0.0640    1.1850    2.2850 O   0  0  0  0  0  0  0  0  0  0  0  0
   -0.2810    2.0890   -1.5520 C   0  0  0  0  0  0  0  0  0  0  0  0
    0.1930    3.2710   -1.6230 O   0  0  0  0  0  0  0  0  0  0  0  0
   -1.3440    1.8240   -2.3700 C   0  0  0  0  0  0  0  0  0  0  0  0
   -1.8830    2.7720   -3.2120 C   0  0  0  0  0  0  0  0  0  0  0  0
   -2.9590    2.4630   -4.0080 C   0  0  0  0  0  0  0  0  0  0  0  0
   -3.5140    1.2020   -3.9730 C   0  0  0  0  0  0  0  0  0  0  0  0
   -2.9920    0.2220   -3.1330 C   0  0  0  0  0  0  0  0  0  0  0  0
   -1.9250    0.5570   -2.3600 C   0  0  0  0  0  0  0  0  0  0  0  0
  1  2  1  0
  2  3  1  0
  3  4  1  0
  4  5  1  0
  5  6  1  0
  6  7  2  0
  6  8  1  0
  8  9  2  0
  8 21  1  0
  9 10  1  0
 10 11  2  0
 11 12  1  0
 11 18  1  0
 12 13  1  0
 12 16  1  0
 13 14  2  0
 14 15  1  0
 15 16  1  0
 16 17  2  0
 18 19  2  0
 19 20  1  0
 20 21  2  0
 20 36  1  0
 21 22  1  0
 22 23  1  0
 22 29  1  0
 24 23  1  6
 24 25  1  0
 24 28  1  0
 25 26  1  0
 26 27  1  0
 27 28  1  0
 29 30  2  0
 29 31  1  0
 31 32  2  0
 31 36  1  0
 32 33  1  0
 33 34  2  0
 34 35  1  0
 35 36  2  0
M  END
