
     RDKit          3D

 37 40  0  0  0  0  0  0  0  0999 V2000
   -2.5980    2.7480    2.3140 C   0  0  0  0  0  0  0  0  0  0  0  0
   -1.7420    2.1970    1.3330 O   0  0  0  0  0  0  0  0  0  0  0  0
   -2.0000    2.5050    0.0040 C   0  0  0  0  0  0  0  0  0  0  0  0
   -3.0540    3.3200   -0.3490 C   0  0  0  0  0  0  0  0  0  0  0  0
   -3.3480    3.6520   -1.6530 C   0  0  0  0  0  0  0  0  0  0  0  0
   -2.5450    3.1430   -2.6530 C   0  0  0  0  0  0  0  0  0  0  0  0
   -1.4840    2.3270   -2.3410 C   0  0  0  0  0  0  0  0  0  0  0  0
   -1.2200    2.0160   -1.0290 C   0  0  0  0  0  0  0  0  0  0  0  0
   -0.0650    1.1380   -0.6280 C   0  0  1  0  0  0  0  0  0  0  0  0
    0.9060    2.0750   -0.0590 N   0  0  0  0  0  0  0  0  0  0  0  0
    2.3830    2.1090   -0.9030 S   0  0  1  0  0  0  0  0  0  0  0  0
    2.2370    2.5980   -2.3150 O   0  0  0  0  0  0  0  0  0  0  0  0
    3.2800    3.0980   -0.2000 O   0  0  0  0  0  0  0  0  0  0  0  0
    3.1640    0.5460   -0.8620 C   0  0  0  0  0  0  0  0  0  0  0  0
    2.9400   -0.3840   -1.8540 C   0  0  0  0  0  0  0  0  0  0  0  0
    3.5750   -1.6140   -1.7860 C   0  0  0  0  0  0  0  0  0  0  0  0
    4.4310   -1.9690   -0.7700 C   0  0  0  0  0  0  0  0  0  0  0  0
    5.0310   -3.1560   -0.7240 N   0  0  0  0  0  0  0  0  0  0  0  0
    5.8730   -3.5180    0.2660 C   0  0  0  0  0  0  0  0  0  0  0  0
    6.4260   -4.6270    0.2980 O   0  0  0  0  0  0  0  0  0  0  0  0
    6.1040   -2.5840    1.2710 C   0  0  0  0  0  0  0  0  0  0  0  0
    5.5030   -1.3450    1.2610 C   0  0  0  0  0  0  0  0  0  0  0  0
    4.6500   -1.0330    0.2190 C   0  0  0  0  0  0  0  0  0  0  0  0
    4.0270    0.1910    0.1650 C   0  0  0  0  0  0  0  0  0  0  0  0
   -0.4410    0.1510    0.4080 C   0  0  0  0  0  0  0  0  0  0  0  0
    0.0690    0.2550    1.5770 O   0  0  0  0  0  0  0  0  0  0  0  0
   -1.3410   -0.9270    0.2090 N   0  0  0  0  0  0  0  0  0  0  0  0
   -2.0080   -1.1980   -1.0480 C   0  0  0  0  0  0  0  0  0  0  0  0
   -1.1150   -2.1160   -1.8310 C   0  0  0  0  0  0  0  0  0  0  0  0
   -0.0090   -2.5220   -1.3930 O   0  0  0  0  0  0  0  0  0  0  0  0
   -1.5050   -2.5450   -3.0880 O   0  0  0  0  0  0  0  0  0  0  0  0
   -1.6560   -1.8570    1.2930 C   0  0  0  0  0  0  0  0  0  0  0  0
   -2.7990   -1.4580    2.1060 C   0  0  0  0  0  0  0  0  0  0  0  0
   -4.1340   -1.6400    1.9970 C   0  0  0  0  0  0  0  0  0  0  0  0
   -4.9490   -1.1490    2.9190 C   0  0  0  0  0  0  0  0  0  0  0  0
   -4.4280   -0.4550    3.9830 C   0  0  0  0  0  0  0  0  0  0  0  0
   -2.6430   -0.4930    3.6670 S   0  0  0  0  0  0  0  0  0  0  0  0
  1  2  1  0
  2  3  1  0
  3  4  2  0
  3  8  1  0
  4  5  1  0
  5  6  2  0
  6  7  1  0
  7  8  2  0
  8  9  1  0
  9 10  1  1
  9 25  1  0
 11 10  1  1
 11 12  2  0
 11 13  2  0
 11 14  1  0
 14 15  2  0
 14 24  1  0
 15 16  1  0
 16 17  2  0
 17 18  1  0
 17 23  1  0
 18 19  1  0
 19 20  2  0
 19 21  1  0
 21 22  2  0
 22 23  1  0
 23 24  2  0
 25 26  2  0
 25 27  1  0
 27 28  1  0
 27 32  1  0
 28 29  1  0
 29 30  2  0
 29 31  1  0
 32 33  1  0
 33 34  2  0
 33 37  1  0
 34 35  1  0
 35 36  2  0
 36 37  1  0
M  END
