
     RDKit          3D

 37 40  0  0  0  0  0  0  0  0999 V2000
   -5.8560    3.8980    0.6010 C   0  0  0  0  0  0  0  0  0  0  0  0
   -5.0640    3.3160    1.7440 C   0  0  0  0  0  0  0  0  0  0  0  0
   -3.6710    2.8870    1.3010 C   0  0  0  0  0  0  0  0  0  0  0  0
   -3.7960    1.8560    0.2190 C   0  0  1  0  0  0  0  0  0  0  0  0
   -2.4370    1.3970   -0.2380 C   0  0  0  0  0  0  0  0  0  0  0  0
   -2.4760   -0.0950   -0.0690 C   0  0  2  0  0  0  0  0  0  0  0  0
   -1.6430   -0.8170   -1.1030 C   0  0  0  0  0  0  0  0  0  0  0  0
    0.0820   -0.2830   -0.8870 S   0  0  0  0  0  0  0  0  0  0  0  0
    1.0500   -1.0710   -2.1840 C   0  0  0  0  0  0  0  0  0  0  0  0
    0.3360   -1.8000   -3.4220 S   0  0  0  0  0  0  0  0  0  0  0  0
    2.4510   -1.0040   -2.0960 N   0  0  0  0  0  0  0  0  0  0  0  0
    3.1320   -0.4180   -1.0830 C   0  0  0  0  0  0  0  0  0  0  0  0
    2.4810    0.1410   -0.1130 O   0  0  0  0  0  0  0  0  0  0  0  0
    4.4550   -0.3030   -0.8740 N   0  0  0  0  0  0  0  0  0  0  0  0
    5.7690   -0.1760   -0.6440 C   0  0  0  0  0  0  0  0  0  0  0  0
    5.9510    0.4540    0.4730 O   0  0  0  0  0  0  0  0  0  0  0  0
    6.8730   -0.5730   -1.3340 N   0  0  0  0  0  0  0  0  0  0  0  0
    8.1290   -0.3240   -0.7920 N   0  0  0  0  0  0  0  0  0  0  0  0
    8.8360    0.8760   -0.5540 C   0  0  0  0  0  0  0  0  0  0  0  0
    8.4460    2.0380   -0.8340 O   0  0  0  0  0  0  0  0  0  0  0  0
   10.1370    0.6040    0.0850 C   0  0  0  0  0  0  0  0  0  0  0  0
   11.2670    1.1340    0.5760 N   0  0  0  0  0  0  0  0  0  0  0  0
   12.0560    0.1500    1.0290 C   0  0  0  0  0  0  0  0  0  0  0  0
   13.2160    0.2730    1.5690 O   0  0  0  0  0  0  0  0  0  0  0  0
   11.3980   -0.9960    0.8090 N   0  0  0  0  0  0  0  0  0  0  0  0
   10.2080   -0.7620    0.2280 C   0  0  0  0  0  0  0  0  0  0  0  0
    8.9940   -1.3730   -0.2980 C   0  0  0  0  0  0  0  0  0  0  0  0
    8.7170   -2.5880   -0.3330 O   0  0  0  0  0  0  0  0  0  0  0  0
   -3.8730   -0.4370   -0.1180 N   0  0  0  0  0  0  0  0  0  0  0  0
   -4.5390   -1.4920   -0.7530 C   0  0  0  0  0  0  0  0  0  0  0  0
   -3.9110   -2.3410   -1.4200 O   0  0  0  0  0  0  0  0  0  0  0  0
   -6.0180   -1.6000   -0.6290 C   0  0  2  0  0  0  0  0  0  0  0  0
   -6.4110   -1.7560    0.8000 C   0  0  0  0  0  0  0  0  0  0  0  0
   -6.9510   -3.1580    0.8790 C   0  0  0  0  0  0  0  0  0  0  0  0
   -7.3430   -3.4750   -0.5040 N   0  0  0  0  0  0  0  0  0  0  0  0
   -6.4950   -2.7490   -1.3050 N   0  0  0  0  0  0  0  0  0  0  0  0
   -4.5080    0.6130    0.7060 C   0  0  0  0  0  0  0  0  0  0  0  0
  1  2  1  0
  2  3  1  0
  4  3  1  1
  4  5  1  0
  4 37  1  0
  5  6  1  0
  6  7  1  6
  6 29  1  0
  7  8  1  0
  8  9  1  0
  9 10  2  0
  9 11  1  0
 11 12  1  0
 12 13  2  0
 12 14  1  0
 14 15  1  0
 15 16  2  0
 15 17  1  0
 17 18  1  0
 18 19  1  0
 18 27  1  0
 19 20  2  0
 19 21  1  0
 21 22  1  0
 21 26  2  0
 22 23  1  0
 23 24  2  0
 23 25  1  0
 25 26  1  0
 26 27  1  0
 27 28  2  0
 29 30  1  0
 29 37  1  0
 30 31  2  0
 32 30  1  1
 32 33  1  0
 32 36  1  0
 33 34  1  0
 34 35  1  0
 35 36  1  0
M  END
