
     RDKit          3D

 36 39  0  0  0  0  0  0  0  0999 V2000
   -3.5490   -1.4920   -3.1060 C   0  0  0  0  0  0  0  0  0  0  0  0
   -4.0740   -0.8750   -2.0680 C   0  0  0  0  0  0  0  0  0  0  0  0
   -3.3600   -0.8210   -0.8650 C   0  0  0  0  0  0  0  0  0  0  0  0
   -3.8550   -0.1910    0.2540 C   0  0  0  0  0  0  0  0  0  0  0  0
   -3.0750   -0.1850    1.4420 N   0  0  0  0  0  0  0  0  0  0  0  0
   -3.6560   -0.8500    2.5970 C   0  0  0  0  0  0  0  0  0  0  0  0
   -2.6830   -1.9500    2.9770 C   0  0  0  0  0  0  0  0  0  0  0  0
   -1.7290   -1.4960    4.0600 C   0  0  0  0  0  0  0  0  0  0  0  0
   -0.8580   -0.3830    3.6200 C   0  0  0  0  0  0  0  0  0  0  0  0
   -0.0060   -0.0340    4.4710 O   0  0  0  0  0  0  0  0  0  0  0  0
   -0.8020    0.3870    2.3840 C   0  0  0  0  0  0  0  0  0  0  0  0
    0.3540    1.0850    2.1800 C   0  0  0  0  0  0  0  0  0  0  0  0
    0.4490    1.8060    1.0510 N   0  0  0  0  0  0  0  0  0  0  0  0
   -0.5130    1.8820    0.1180 C   0  0  0  0  0  0  0  0  0  0  0  0
   -0.2660    2.7280   -1.1030 C   0  0  0  0  0  0  0  0  0  0  0  0
    0.3770    1.8210   -2.1310 C   0  0  0  0  0  0  0  0  0  0  0  0
    1.5830    1.2990   -1.6250 O   0  0  0  0  0  0  0  0  0  0  0  0
    2.6650    2.0660   -1.2520 C   0  0  0  0  0  0  0  0  0  0  0  0
    2.5910    3.3120   -1.3670 O   0  0  0  0  0  0  0  0  0  0  0  0
    3.9240    1.5040   -0.7180 C   0  0  0  0  0  0  0  0  0  0  0  0
    3.8540    0.0780   -0.6390 O   0  0  0  0  0  0  0  0  0  0  0  0
    4.9490   -0.6110   -0.1560 C   0  0  0  0  0  0  0  0  0  0  0  0
    6.2300   -0.2940   -0.2160 C   0  0  0  0  0  0  0  0  0  0  0  0
    6.9990   -1.3630    0.4500 C   0  0  2  0  0  0  0  0  0  0  0  0
    8.3740   -1.5380   -0.1600 C   0  0  0  0  0  0  0  0  0  0  0  0
    9.1030   -0.2210   -0.0020 C   0  0  0  0  0  0  0  0  0  0  0  0
    6.1630   -2.5210    0.3130 N   0  0  0  0  0  0  0  0  0  0  0  0
    4.8390   -1.9280    0.5670 C   0  0  0  0  0  0  0  0  0  0  0  0
   -1.6610    1.2040    0.2940 N   0  0  0  0  0  0  0  0  0  0  0  0
   -1.8000    0.4590    1.4280 C   0  0  0  0  0  0  0  0  0  0  0  0
   -5.0990    0.3890    0.1330 C   0  0  0  0  0  0  0  0  0  0  0  0
   -5.6440    1.0800    1.3270 C   0  0  0  0  0  0  0  0  0  0  0  0
   -5.8220    0.3480   -1.0440 C   0  0  0  0  0  0  0  0  0  0  0  0
   -7.1650    0.9730   -1.1620 C   0  0  0  0  0  0  0  0  0  0  0  0
   -5.3130   -0.2930   -2.1760 C   0  0  0  0  0  0  0  0  0  0  0  0
   -6.0420   -0.3030   -3.2770 C   0  0  0  0  0  0  0  0  0  0  0  0
  1  2  2  0
  2  3  1  0
  2 35  1  0
  3  4  2  0
  4  5  1  0
  4 31  1  0
  5  6  1  0
  5 30  1  0
  6  7  1  0
  7  8  1  0
  8  9  1  0
  9 10  2  0
  9 11  1  0
 11 12  2  0
 11 30  1  0
 12 13  1  0
 13 14  2  0
 14 15  1  0
 14 29  1  0
 15 16  1  0
 16 17  1  0
 17 18  1  0
 18 19  2  0
 18 20  1  0
 20 21  1  0
 21 22  1  0
 22 23  2  0
 22 28  1  0
 23 24  1  0
 24 25  1  6
 24 27  1  0
 25 26  1  0
 27 28  1  0
 29 30  2  0
 31 32  1  0
 31 33  2  0
 33 34  1  0
 33 35  1  0
 35 36  2  0
M  END
