
     RDKit          3D

 37 40  0  0  0  0  0  0  0  0999 V2000
    5.7880   -0.0030    2.9350 C   0  0  0  0  0  0  0  0  0  0  0  0
    4.6220    0.3510    2.0180 C   0  0  1  0  0  0  0  0  0  0  0  0
    3.7720    1.3200    2.7340 N   0  0  0  0  0  0  0  0  0  0  0  0
    2.4280    0.9860    3.0580 C   0  0  0  0  0  0  0  0  0  0  0  0
    1.9710   -0.1400    2.7310 O   0  0  0  0  0  0  0  0  0  0  0  0
    1.5910    1.9070    3.7480 N   0  0  0  0  0  0  0  0  0  0  0  0
    0.2380    1.6410    4.1070 C   0  0  0  0  0  0  0  0  0  0  0  0
   -0.6280    1.3470    2.8820 C   0  0  0  0  0  0  0  0  0  0  0  0
   -1.0150    0.5090    2.1990 N   0  0  0  0  0  0  0  0  0  0  0  0
   -1.8220    0.5810    1.1280 C   0  0  0  0  0  0  0  0  0  0  0  0
   -2.1900   -0.6480    0.4220 C   0  0  0  0  0  0  0  0  0  0  0  0
   -1.3560   -1.6210    0.3350 O   0  0  0  0  0  0  0  0  0  0  0  0
   -3.4440   -0.8750   -0.1920 N   0  0  0  0  0  0  0  0  0  0  0  0
   -3.7400   -2.1350   -0.8840 C   0  0  1  0  0  0  0  0  0  0  0  0
   -5.0040   -2.6830   -0.2530 C   0  0  0  0  0  0  0  0  0  0  0  0
   -6.2340   -2.2120   -1.0000 C   0  0  0  0  0  0  0  0  0  0  0  0
   -6.2920   -2.8660   -2.2890 N   0  0  0  0  0  0  0  0  0  0  0  0
   -4.9600   -3.0150   -2.8120 C   0  0  0  0  0  0  0  0  0  0  0  0
   -4.0350   -1.9060   -2.3460 C   0  0  2  0  0  0  0  0  0  0  0  0
   -2.8760   -2.0070   -3.1270 O   0  0  0  0  0  0  0  0  0  0  0  0
   -2.2310    1.7950    0.8070 C   0  0  0  0  0  0  0  0  0  0  0  0
   -2.9810    2.4450   -0.2870 C   0  0  0  0  0  0  0  0  0  0  0  0
   -3.2830    2.0930   -1.5120 C   0  0  0  0  0  0  0  0  0  0  0  0
   -3.9440    2.9130   -2.3560 C   0  0  0  0  0  0  0  0  0  0  0  0
   -4.2900    4.1610   -1.8520 C   0  0  0  0  0  0  0  0  0  0  0  0
   -3.6390    4.0810   -0.1810 S   0  0  0  0  0  0  0  0  0  0  0  0
   -1.4560    2.8350    2.0580 S   0  0  0  0  0  0  0  0  0  0  0  0
    5.0560    1.0130    0.7730 C   0  0  0  0  0  0  0  0  0  0  0  0
    4.7760    2.2470    0.5520 O   0  0  0  0  0  0  0  0  0  0  0  0
    5.7960    0.3500   -0.2470 N   0  0  0  0  0  0  0  0  0  0  0  0
    6.2120    1.0700   -1.3900 N   0  0  0  0  0  0  0  0  0  0  0  0
    6.9300    0.4620   -2.4410 C   0  0  0  0  0  0  0  0  0  0  0  0
    7.2820    1.1310   -3.4390 O   0  0  0  0  0  0  0  0  0  0  0  0
    7.2680   -0.9090   -2.3930 N   0  0  0  0  0  0  0  0  0  0  0  0
    6.8630   -1.6210   -1.2740 N   0  0  0  0  0  0  0  0  0  0  0  0
    6.1320   -1.0190   -0.1960 C   0  0  0  0  0  0  0  0  0  0  0  0
    5.7940   -1.7310    0.7920 O   0  0  0  0  0  0  0  0  0  0  0  0
  2  1  1  1
  2  3  1  0
  2 28  1  0
  3  4  1  0
  4  5  2  0
  4  6  1  0
  6  7  1  0
  7  8  1  0
  8  9  2  0
  8 27  1  0
  9 10  1  0
 10 11  1  0
 10 21  2  0
 11 12  2  0
 11 13  1  0
 14 13  1  1
 14 15  1  0
 14 19  1  0
 15 16  1  0
 16 17  1  0
 17 18  1  0
 18 19  1  0
 19 20  1  6
 21 22  1  0
 21 27  1  0
 22 23  2  0
 22 26  1  0
 23 24  1  0
 24 25  2  0
 25 26  1  0
 28 29  2  0
 28 30  1  0
 30 31  1  0
 30 36  1  0
 31 32  1  0
 32 33  2  0
 32 34  1  0
 34 35  1  0
 35 36  1  0
 36 37  2  0
M  END
