
     RDKit          3D

 27 29  0  0  0  0  0  0  0  0999 V2000
   -4.5170    0.3900    1.5090 C   0  0  0  0  0  0  0  0  0  0  0  0
   -3.2430    1.1270    1.3900 C   0  0  0  0  0  0  0  0  0  0  0  0
   -2.2320    0.5760    0.4010 C   0  0  1  0  0  0  0  0  0  0  0  0
   -1.8740   -0.7850    0.7470 N   0  0  0  0  0  0  0  0  0  0  0  0
   -0.6440   -1.4180    0.4610 C   0  0  0  0  0  0  0  0  0  0  0  0
    0.4770   -0.7080    0.0090 C   0  0  0  0  0  0  0  0  0  0  0  0
    1.6810   -1.3390   -0.2260 C   0  0  0  0  0  0  0  0  0  0  0  0
    2.8620   -0.6000   -0.7030 C   0  0  0  0  0  0  0  0  0  0  0  0
    3.1230   -0.4360   -2.0480 C   0  0  0  0  0  0  0  0  0  0  0  0
    2.3290   -0.9320   -2.9030 O   0  0  0  0  0  0  0  0  0  0  0  0
    4.1820    0.2270   -2.5280 N   0  0  0  0  0  0  0  0  0  0  0  0
    5.0390    0.7630   -1.6520 C   0  0  0  0  0  0  0  0  0  0  0  0
    4.8360    0.6350   -0.3240 N   0  0  0  0  0  0  0  0  0  0  0  0
    5.7450    1.2040    0.4810 C   0  0  0  0  0  0  0  0  0  0  0  0
    5.5780    1.0980    1.8440 C   0  0  0  0  0  0  0  0  0  0  0  0
    4.4870    0.4150    2.3350 C   0  0  0  0  0  0  0  0  0  0  0  0
    3.6030   -0.1370    1.4860 N   0  0  0  0  0  0  0  0  0  0  0  0
    3.7680   -0.0330    0.1740 C   0  0  0  0  0  0  0  0  0  0  0  0
    1.7440   -2.6970    0.0010 C   0  0  0  0  0  0  0  0  0  0  0  0
    3.2770   -3.4910   -0.2990 Cl  0  0  0  0  0  0  0  0  0  0  0  0
    0.6560   -3.4220    0.4480 C   0  0  0  0  0  0  0  0  0  0  0  0
   -0.5440   -2.7810    0.6790 C   0  0  0  0  0  0  0  0  0  0  0  0
   -1.9600   -3.6500    1.2440 Cl  0  0  0  0  0  0  0  0  0  0  0  0
   -2.6920    0.7550   -1.0130 C   0  0  1  0  0  0  0  0  0  0  0  0
   -3.9960    0.0670   -1.3530 C   0  0  0  0  0  0  0  0  0  0  0  0
   -2.9830    2.2430   -1.2960 C   0  0  0  0  0  0  0  0  0  0  0  0
   -1.6870    0.3360   -2.0560 C   0  0  0  0  0  0  0  0  0  0  0  0
  1  2  1  0
  3  2  1  1
  3  4  1  0
  3 24  1  0
  4  5  1  0
  5  6  2  0
  5 22  1  0
  6  7  1  0
  7  8  1  0
  7 19  2  0
  8  9  1  0
  8 18  2  0
  9 10  2  0
  9 11  1  0
 11 12  2  0
 12 13  1  0
 13 14  1  0
 13 18  1  0
 14 15  2  0
 15 16  1  0
 16 17  2  0
 17 18  1  0
 19 20  1  0
 19 21  1  0
 21 22  2  0
 22 23  1  0
 24 25  1  1
 24 26  1  0
 24 27  1  0
M  END
