
     RDKit          3D

 27 29  0  0  0  0  0  0  0  0999 V2000
   -6.1620   -0.5160   -0.6620 C   0  0  0  0  0  0  0  0  0  0  0  0
   -4.6900   -0.3670   -0.4740 C   0  0  0  0  0  0  0  0  0  0  0  0
   -3.8360   -1.3330   -0.9640 C   0  0  0  0  0  0  0  0  0  0  0  0
   -2.4670   -1.2080   -0.7980 C   0  0  0  0  0  0  0  0  0  0  0  0
   -1.5610   -2.2610   -1.3340 C   0  0  0  0  0  0  0  0  0  0  0  0
   -2.0020   -0.0930   -0.1300 C   0  0  0  0  0  0  0  0  0  0  0  0
   -0.5750    0.0010    0.0230 N   0  0  0  0  0  0  0  0  0  0  0  0
    0.0080   -0.5750    1.1820 C   0  0  0  0  0  0  0  0  0  0  0  0
   -0.8190   -1.1870    2.0880 N   0  0  0  0  0  0  0  0  0  0  0  0
   -0.3850   -1.7590    3.2070 C   0  0  0  0  0  0  0  0  0  0  0  0
   -1.4950   -2.5320    4.3350 Cl  0  0  0  0  0  0  0  0  0  0  0  0
    0.9660   -1.7200    3.4400 C   0  0  0  0  0  0  0  0  0  0  0  0
    1.8360   -1.1000    2.5300 C   0  0  0  0  0  0  0  0  0  0  0  0
    1.3860   -0.5100    1.3770 C   0  0  0  0  0  0  0  0  0  0  0  0
    2.1920    0.1350    0.4100 N   0  0  0  0  0  0  0  0  0  0  0  0
    3.5960    0.2690    0.4820 C   0  0  0  0  0  0  0  0  0  0  0  0
    4.2160   -0.2030    1.4600 O   0  0  0  0  0  0  0  0  0  0  0  0
    4.3400    0.9670   -0.5960 C   0  0  0  0  0  0  0  0  0  0  0  0
    3.8190    1.3770   -1.7690 C   0  0  0  0  0  0  0  0  0  0  0  0
    4.6460    2.0290   -2.6910 C   0  0  0  0  0  0  0  0  0  0  0  0
    5.9390    2.2490   -2.4250 N   0  0  0  0  0  0  0  0  0  0  0  0
    6.5020    1.8600   -1.2730 C   0  0  0  0  0  0  0  0  0  0  0  0
    8.2090    2.1580   -0.9360 Cl  0  0  0  0  0  0  0  0  0  0  0  0
    5.6920    1.2180   -0.3630 C   0  0  0  0  0  0  0  0  0  0  0  0
   -2.8340    0.8870    0.3690 C   0  0  0  0  0  0  0  0  0  0  0  0
   -2.2470    2.0640    1.0800 C   0  0  0  0  0  0  0  0  0  0  0  0
   -4.1960    0.7380    0.1900 C   0  0  0  0  0  0  0  0  0  0  0  0
  1  2  1  0
  2  3  2  0
  2 27  1  0
  3  4  1  0
  4  5  1  0
  4  6  2  0
  6  7  1  0
  6 25  1  0
  7  8  1  0
  8  9  2  0
  8 14  1  0
  9 10  1  0
 10 11  1  0
 10 12  2  0
 12 13  1  0
 13 14  2  0
 14 15  1  0
 15 16  1  0
 16 17  2  0
 16 18  1  0
 18 19  2  0
 18 24  1  0
 19 20  1  0
 20 21  2  0
 21 22  1  0
 22 23  1  0
 22 24  2  0
 25 26  1  0
 25 27  2  0
M  END
