
     RDKit          3D

 27 29  0  0  0  0  0  0  0  0999 V2000
    4.1440    2.3650    1.8500 C   0  0  0  0  0  0  0  0  0  0  0  0
    3.3300    1.2770    1.2210 C   0  0  0  0  0  0  0  0  0  0  0  0
    3.9020    0.1950    0.7240 C   0  0  0  0  0  0  0  0  0  0  0  0
    5.3350    0.0900    0.8070 C   0  0  0  0  0  0  0  0  0  0  0  0
    6.1300   -0.8540    0.4010 C   0  0  0  0  0  0  0  0  0  0  0  0
    7.8800   -0.6520    0.6700 Cl  0  0  0  0  0  0  0  0  0  0  0  0
    3.1100   -0.8440    0.1040 C   0  0  0  0  0  0  0  0  0  0  0  0
    1.7250   -0.7870   -0.0560 C   0  0  0  0  0  0  0  0  0  0  0  0
    0.9800   -1.7830   -0.6470 C   0  0  0  0  0  0  0  0  0  0  0  0
   -0.4620   -1.6560   -0.7870 C   0  0  0  0  0  0  0  0  0  0  0  0
   -1.1830   -0.5970   -0.3720 N   0  0  0  0  0  0  0  0  0  0  0  0
   -2.4780   -0.8050   -0.6560 C   0  0  0  0  0  0  0  0  0  0  0  0
   -3.5590    0.1120   -0.3620 C   0  0  0  0  0  0  0  0  0  0  0  0
   -3.3770    1.3220    0.2600 C   0  0  0  0  0  0  0  0  0  0  0  0
   -4.4530    2.1460    0.5050 C   0  0  0  0  0  0  0  0  0  0  0  0
   -4.2800    3.4550    1.1750 C   0  0  0  0  0  0  0  0  0  0  0  0
   -5.7410    1.7600    0.1240 C   0  0  0  0  0  0  0  0  0  0  0  0
   -6.8540    2.5890    0.3660 N   0  0  0  0  0  0  0  0  0  0  0  0
   -5.9350    0.5550   -0.4970 C   0  0  0  0  0  0  0  0  0  0  0  0
   -7.5550    0.0500   -0.9860 Cl  0  0  0  0  0  0  0  0  0  0  0  0
   -4.8500   -0.2670   -0.7400 C   0  0  0  0  0  0  0  0  0  0  0  0
   -2.5440   -2.0050   -1.2510 N   0  0  0  0  0  0  0  0  0  0  0  0
   -1.3180   -2.4760   -1.3080 O   0  0  0  0  0  0  0  0  0  0  0  0
    1.6180   -2.9060   -1.1110 C   0  0  0  0  0  0  0  0  0  0  0  0
    2.9820   -2.9670   -0.9560 C   0  0  0  0  0  0  0  0  0  0  0  0
    3.6560   -4.2070   -1.4720 C   0  0  0  0  0  0  0  0  0  0  0  0
    3.6640   -1.9810   -0.3800 N   0  0  0  0  0  0  0  0  0  0  0  0
  1  2  1  0
  2  3  2  3
  3  4  1  0
  3  7  1  0
  4  5  2  3
  5  6  1  0
  7  8  2  0
  7 27  1  0
  8  9  1  0
  9 10  1  0
  9 24  2  0
 10 11  2  0
 10 23  1  0
 11 12  1  0
 12 13  1  0
 12 22  2  0
 13 14  2  0
 13 21  1  0
 14 15  1  0
 15 16  1  0
 15 17  2  0
 17 18  1  0
 17 19  1  0
 19 20  1  0
 19 21  2  0
 22 23  1  0
 24 25  1  0
 25 26  1  0
 25 27  2  0
M  END
