
     RDKit          3D

 17 18  0  0  0  0  0  0  0  0999 V2000
    3.6000   -1.3860    0.5900 C   0  0  0  0  0  0  0  0  0  0  0  0
    3.7130   -1.1560    1.8750 C   0  0  0  0  0  0  0  0  0  0  0  0
    3.2350    0.0570    2.5650 C   0  0  0  0  0  0  0  0  0  0  0  0
    2.6160    0.9650    1.7200 O   0  0  0  0  0  0  0  0  0  0  0  0
    1.4350    0.7310    1.0530 C   0  0  0  0  0  0  0  0  0  0  0  0
    0.7060   -0.4320    1.1780 C   0  0  0  0  0  0  0  0  0  0  0  0
   -0.4790   -0.6360    0.4900 C   0  0  0  0  0  0  0  0  0  0  0  0
   -0.9570    0.3460   -0.3480 C   0  0  0  0  0  0  0  0  0  0  0  0
   -0.2090    1.5040   -0.4560 C   0  0  0  0  0  0  0  0  0  0  0  0
    0.9690    1.7440    0.2060 C   0  0  0  0  0  0  0  0  0  0  0  0
    1.6860    2.9310    0.0620 O   0  0  0  0  0  0  0  0  0  0  0  0
    1.1510    3.9070   -0.8110 C   0  0  0  0  0  0  0  0  0  0  0  0
   -2.2240    0.1620   -1.0990 C   0  0  0  0  0  0  0  0  0  0  0  0
   -2.6000   -1.2180   -1.2010 N   0  0  0  0  0  0  0  0  0  0  0  0
   -3.8280   -1.3590   -1.9170 C   0  0  0  0  0  0  0  0  0  0  0  0
   -2.6910   -1.7170    0.1710 C   0  0  0  0  0  0  0  0  0  0  0  0
   -1.2590   -1.8910    0.6280 C   0  0  0  0  0  0  0  0  0  0  0  0
  1  2  2  0
  2  3  1  0
  3  4  1  0
  4  5  1  0
  5  6  2  0
  5 10  1  0
  6  7  1  0
  7  8  2  0
  7 17  1  0
  8  9  1  0
  8 13  1  0
  9 10  2  0
 10 11  1  0
 11 12  1  0
 13 14  1  0
 14 15  1  0
 14 16  1  0
 16 17  1  0
M  END
