
     RDKit          3D

 27 29  0  0  0  0  0  0  0  0999 V2000
    2.7650    3.5210   -0.0810 C   0  0  0  0  0  0  0  0  0  0  0  0
    2.9710    2.0350   -0.1390 C   0  0  0  0  0  0  0  0  0  0  0  0
    2.2340    1.2540   -1.0230 C   0  0  0  0  0  0  0  0  0  0  0  0
    2.3910   -0.1030   -1.1060 C   0  0  0  0  0  0  0  0  0  0  0  0
    1.5960   -0.9190   -2.0560 C   0  0  0  0  0  0  0  0  0  0  0  0
    0.4230   -1.5100   -1.5000 N   0  0  0  0  0  0  0  0  0  0  0  0
   -0.8010   -0.7840   -1.2570 C   0  0  0  0  0  0  0  0  0  0  0  0
   -0.8360    0.4110   -1.5470 O   0  0  0  0  0  0  0  0  0  0  0  0
   -1.9280   -1.4090   -0.7060 N   0  0  0  0  0  0  0  0  0  0  0  0
   -3.1810   -0.8440   -0.4210 C   0  0  0  0  0  0  0  0  0  0  0  0
   -3.5070    0.4610   -0.6810 C   0  0  0  0  0  0  0  0  0  0  0  0
   -4.7780    0.9890   -0.3890 C   0  0  0  0  0  0  0  0  0  0  0  0
   -5.0840    2.4220   -0.7000 C   0  0  0  0  0  0  0  0  0  0  0  0
   -5.7370    0.2140    0.1700 C   0  0  0  0  0  0  0  0  0  0  0  0
   -7.3290    0.8380    0.5470 Cl  0  0  0  0  0  0  0  0  0  0  0  0
   -5.4090   -1.1080    0.4340 C   0  0  0  0  0  0  0  0  0  0  0  0
   -6.4600   -1.9590    1.0500 C   0  0  0  0  0  0  0  0  0  0  0  0
   -4.1820   -1.6380    0.1570 C   0  0  0  0  0  0  0  0  0  0  0  0
   -3.8480   -3.3300    0.5250 Cl  0  0  0  0  0  0  0  0  0  0  0  0
    3.3340   -0.6960   -0.2580 C   0  0  0  0  0  0  0  0  0  0  0  0
    4.0870    0.0310    0.6320 C   0  0  0  0  0  0  0  0  0  0  0  0
    5.0560   -0.6070    1.4920 N   0  0  0  0  0  0  0  0  0  0  0  0
    6.3450   -0.8180    1.1350 C   0  0  0  0  0  0  0  0  0  0  0  0
    6.9900   -1.4430    2.1800 C   0  0  0  0  0  0  0  0  0  0  0  0
    6.0750   -1.5980    3.1490 N   0  0  0  0  0  0  0  0  0  0  0  0
    4.8900   -1.0810    2.7160 C   0  0  0  0  0  0  0  0  0  0  0  0
    3.8850    1.3930    0.6710 C   0  0  0  0  0  0  0  0  0  0  0  0
  1  2  1  0
  2  3  2  0
  2 27  1  0
  3  4  1  0
  4  5  1  0
  4 20  2  0
  5  6  1  0
  6  7  1  0
  7  8  2  0
  7  9  1  0
  9 10  1  0
 10 11  2  0
 10 18  1  0
 11 12  1  0
 12 13  1  0
 12 14  2  0
 14 15  1  0
 14 16  1  0
 16 17  1  0
 16 18  2  0
 18 19  1  0
 20 21  1  0
 21 22  1  0
 21 27  2  0
 22 23  1  0
 22 26  1  0
 23 24  2  0
 24 25  1  0
 25 26  2  0
M  END
