
     RDKit          3D

 27 29  0  0  0  0  0  0  0  0999 V2000
    1.1130    3.3350   -1.9590 C   0  0  0  0  0  0  0  0  0  0  0  0
    1.2660    2.0300   -1.3210 C   0  0  0  0  0  0  0  0  0  0  0  0
    1.1650    1.7320   -0.0490 C   0  0  0  0  0  0  0  0  0  0  0  0
    1.3350    0.4200    0.4480 N   0  0  0  0  0  0  0  0  0  0  0  0
    0.4840   -0.3690    0.9400 C   0  0  0  0  0  0  0  0  0  0  0  0
    0.9880   -1.6610    1.3660 N   0  0  0  0  0  0  0  0  0  0  0  0
    1.9400   -2.3930    0.6100 C   0  0  0  0  0  0  0  0  0  0  0  0
    2.3860   -2.0390   -0.6290 C   0  0  0  0  0  0  0  0  0  0  0  0
    3.3270   -2.8330   -1.2660 C   0  0  0  0  0  0  0  0  0  0  0  0
    3.8110   -3.9630   -0.6640 C   0  0  0  0  0  0  0  0  0  0  0  0
    3.3550   -4.2880    0.5570 N   0  0  0  0  0  0  0  0  0  0  0  0
    2.4480   -3.5530    1.2080 C   0  0  0  0  0  0  0  0  0  0  0  0
   -0.9410   -0.1530    1.1060 C   0  0  0  0  0  0  0  0  0  0  0  0
   -1.5370   -0.0340    2.3430 C   0  0  0  0  0  0  0  0  0  0  0  0
   -2.8970    0.1600    2.4540 C   0  0  0  0  0  0  0  0  0  0  0  0
   -3.4910    0.2750    3.5590 O   0  0  0  0  0  0  0  0  0  0  0  0
   -3.6610    0.2350    1.3520 N   0  0  0  0  0  0  0  0  0  0  0  0
   -3.1330    0.1250    0.1330 C   0  0  0  0  0  0  0  0  0  0  0  0
   -3.9650    0.1960   -0.9870 C   0  0  0  0  0  0  0  0  0  0  0  0
   -3.4470    0.0710   -2.2460 C   0  0  0  0  0  0  0  0  0  0  0  0
   -2.1050   -0.1250   -2.4080 C   0  0  0  0  0  0  0  0  0  0  0  0
   -1.2970   -0.1920   -1.2930 C   0  0  0  0  0  0  0  0  0  0  0  0
   -1.7520   -0.0730    0.0040 C   0  0  0  0  0  0  0  0  0  0  0  0
    0.8670    2.7890    0.9060 C   0  0  0  0  0  0  0  0  0  0  0  0
    0.6190    4.4610    0.4650 Cl  0  0  0  0  0  0  0  0  0  0  0  0
    0.7650    2.5110    2.2190 C   0  0  0  0  0  0  0  0  0  0  0  0
    0.4150    3.6960    3.4180 Cl  0  0  0  0  0  0  0  0  0  0  0  0
  1  2  1  0
  2  3  2  3
  3  4  1  0
  3 24  1  0
  4  5  2  3
  5  6  1  0
  5 13  1  0
  6  7  1  0
  7  8  2  0
  7 12  1  0
  8  9  1  0
  9 10  2  0
 10 11  1  0
 11 12  2  0
 13 14  2  0
 13 23  1  0
 14 15  1  0
 15 16  2  0
 15 17  1  0
 17 18  1  0
 18 19  2  0
 18 23  1  0
 19 20  1  0
 20 21  2  0
 21 22  1  0
 22 23  2  0
 24 25  1  0
 24 26  2  3
 26 27  1  0
M  END
