
     RDKit          3D

 27 29  0  0  0  0  0  0  0  0999 V2000
    5.0200    2.5150   -1.8370 C   0  0  0  0  0  0  0  0  0  0  0  0
    3.7000    1.8620   -1.9800 C   0  0  0  0  0  0  0  0  0  0  0  0
    3.1050    1.2150   -0.9970 C   0  0  0  0  0  0  0  0  0  0  0  0
    3.6890    1.0960    0.2840 N   0  0  0  0  0  0  0  0  0  0  0  0
    3.0120    0.3780    1.3470 C   0  0  0  0  0  0  0  0  0  0  0  0
    3.5900    0.4080    2.5460 C   0  0  0  0  0  0  0  0  0  0  0  0
    5.1120    1.2910    2.7450 Cl  0  0  0  0  0  0  0  0  0  0  0  0
    1.7330   -0.2600    1.1930 C   0  0  0  0  0  0  0  0  0  0  0  0
    1.0990   -1.0570    1.9950 C   0  0  0  0  0  0  0  0  0  0  0  0
    1.3940   -1.6220    3.2880 C   0  0  0  0  0  0  0  0  0  0  0  0
    0.2580   -1.0230    4.5440 Cl  0  0  0  0  0  0  0  0  0  0  0  0
    1.1510   -0.1150   -0.1460 N   0  0  0  0  0  0  0  0  0  0  0  0
   -0.1080   -0.6970   -0.4080 C   0  0  0  0  0  0  0  0  0  0  0  0
   -1.2190    0.0860   -0.2600 C   0  0  0  0  0  0  0  0  0  0  0  0
   -2.4620   -0.4500   -0.5100 C   0  0  0  0  0  0  0  0  0  0  0  0
   -3.6350    0.3890   -0.3490 C   0  0  0  0  0  0  0  0  0  0  0  0
   -3.6280    1.7430   -0.5840 C   0  0  0  0  0  0  0  0  0  0  0  0
   -4.7850    2.5130   -0.4170 C   0  0  0  0  0  0  0  0  0  0  0  0
   -5.9510    1.8850   -0.0060 C   0  0  0  0  0  0  0  0  0  0  0  0
   -5.9170    0.5600    0.2140 N   0  0  0  0  0  0  0  0  0  0  0  0
   -4.8110   -0.1950    0.0570 C   0  0  0  0  0  0  0  0  0  0  0  0
   -2.5510   -1.7710   -0.9050 C   0  0  0  0  0  0  0  0  0  0  0  0
   -1.4440   -2.5480   -1.0530 C   0  0  0  0  0  0  0  0  0  0  0  0
   -1.4660   -3.9660   -1.4720 C   0  0  0  0  0  0  0  0  0  0  0  0
   -0.2540   -1.9810   -0.7980 N   0  0  0  0  0  0  0  0  0  0  0  0
    1.8150    0.5850   -1.1650 C   0  0  0  0  0  0  0  0  0  0  0  0
    1.2710    0.6810   -2.3000 O   0  0  0  0  0  0  0  0  0  0  0  0
  1  2  1  0
  2  3  2  3
  3  4  1  0
  3 26  1  0
  4  5  1  0
  5  6  2  3
  5  8  1  0
  6  7  1  0
  8  9  2  3
  8 12  1  0
  9 10  1  0
 10 11  1  0
 12 13  1  0
 12 26  1  0
 13 14  2  0
 13 25  1  0
 14 15  1  0
 15 16  1  0
 15 22  2  0
 16 17  2  0
 16 21  1  0
 17 18  1  0
 18 19  2  0
 19 20  1  0
 20 21  2  0
 22 23  1  0
 23 24  1  0
 23 25  2  0
 26 27  2  0
M  END
