
     RDKit          3D

 27 29  0  0  0  0  0  0  0  0999 V2000
    1.6170    0.8530   -2.7460 C   0  0  0  0  0  0  0  0  0  0  0  0
    2.2490    0.4190   -1.4500 C   0  0  0  0  0  0  0  0  0  0  0  0
    1.5260    0.0700   -0.4390 N   0  0  0  0  0  0  0  0  0  0  0  0
    0.1090    0.0840   -0.5170 C   0  0  0  0  0  0  0  0  0  0  0  0
   -0.5610    1.1140   -0.2220 N   0  0  0  0  0  0  0  0  0  0  0  0
   -1.9220    1.3680   -0.2210 C   0  0  0  0  0  0  0  0  0  0  0  0
   -2.5340    1.8840    0.9040 C   0  0  0  0  0  0  0  0  0  0  0  0
   -3.8830    2.1640    0.9700 C   0  0  0  0  0  0  0  0  0  0  0  0
   -4.6660    1.9250   -0.1220 C   0  0  0  0  0  0  0  0  0  0  0  0
   -4.1000    1.4110   -1.2640 C   0  0  0  0  0  0  0  0  0  0  0  0
   -2.7520    1.1420   -1.3010 C   0  0  0  0  0  0  0  0  0  0  0  0
   -2.1050    0.4980   -2.7890 Cl  0  0  0  0  0  0  0  0  0  0  0  0
   -0.6230   -1.0140   -0.9160 O   0  0  0  0  0  0  0  0  0  0  0  0
   -1.5260   -1.6970   -0.1250 C   0  0  0  0  0  0  0  0  0  0  0  0
   -1.8060   -1.4040    1.1840 C   0  0  0  0  0  0  0  0  0  0  0  0
   -2.7300   -2.1140    1.9490 C   0  0  0  0  0  0  0  0  0  0  0  0
   -3.4010   -3.1550    1.3920 C   0  0  0  0  0  0  0  0  0  0  0  0
   -3.1510   -3.4840    0.0830 C   0  0  0  0  0  0  0  0  0  0  0  0
   -4.0270   -4.8340   -0.6370 Cl  0  0  0  0  0  0  0  0  0  0  0  0
   -2.2420   -2.7760   -0.6510 C   0  0  0  0  0  0  0  0  0  0  0  0
    3.6580    0.3760   -1.2850 N   0  0  0  0  0  0  0  0  0  0  0  0
    4.1780    0.4500    0.0370 C   0  0  0  0  0  0  0  0  0  0  0  0
    5.5500    0.4060    0.1690 C   0  0  0  0  0  0  0  0  0  0  0  0
    6.1760    0.4700    1.4050 C   0  0  0  0  0  0  0  0  0  0  0  0
    5.3830    0.5810    2.5240 C   0  0  0  0  0  0  0  0  0  0  0  0
    4.0140    0.6220    2.3610 C   0  0  0  0  0  0  0  0  0  0  0  0
    3.4360    0.5570    1.1260 N   0  0  0  0  0  0  0  0  0  0  0  0
  1  2  1  0
  2  3  2  3
  2 21  1  0
  3  4  1  0
  4  5  2  3
  4 13  1  0
  5  6  1  0
  6  7  2  0
  6 11  1  0
  7  8  1  0
  8  9  2  0
  9 10  1  0
 10 11  2  0
 11 12  1  0
 13 14  1  0
 14 15  2  0
 14 20  1  0
 15 16  1  0
 16 17  2  0
 17 18  1  0
 18 19  1  0
 18 20  2  0
 21 22  1  0
 22 23  2  0
 22 27  1  0
 23 24  1  0
 24 25  2  0
 25 26  1  0
 26 27  2  0
M  END
