
     RDKit          3D

 26 28  0  0  0  0  0  0  0  0999 V2000
    1.2520    2.4440   -1.2750 C   0  0  0  0  0  0  0  0  0  0  0  0
    0.3870    1.3750   -0.6750 C   0  0  2  0  0  0  0  0  0  0  0  0
    1.0480    0.1120   -0.2670 C   0  0  0  0  0  0  0  0  0  0  0  0
    1.7240   -0.7740   -1.1980 C   0  0  1  0  0  0  0  0  0  0  0  0
    2.8770   -0.3380   -2.0080 C   0  0  0  0  0  0  0  0  0  0  0  0
    2.7120    0.6710   -2.9050 O   0  0  0  0  0  0  0  0  0  0  0  0
    2.2510   -1.9760   -0.3510 C   0  0  0  0  0  0  0  0  0  0  0  0
    3.1250   -1.3880    0.5940 O   0  0  0  0  0  0  0  0  0  0  0  0
    3.7770   -2.1840    1.5170 C   0  0  0  0  0  0  0  0  0  0  0  0
    3.1310   -3.1680    2.0330 N   0  0  0  0  0  0  0  0  0  0  0  0
    5.1430   -1.9240    1.8980 N   0  0  0  0  0  0  0  0  0  0  0  0
   -0.6680    1.1280   -1.6350 N   0  0  0  0  0  0  0  0  0  0  0  0
   -1.9510    1.3950   -1.2260 N   0  0  0  0  0  0  0  0  0  0  0  0
   -2.3830    0.9600    0.0980 C   0  0  0  0  0  0  0  0  0  0  0  0
   -1.4070    1.2790    1.0590 C   0  0  0  0  0  0  0  0  0  0  0  0
   -2.0730    0.6980    2.5490 S   0  0  0  0  0  0  0  0  0  0  0  0
   -3.6210    0.0500    1.8750 C   0  0  0  0  0  0  0  0  0  0  0  0
   -4.7060   -0.5740    2.4420 C   0  0  0  0  0  0  0  0  0  0  0  0
   -4.6770   -0.7700    3.6770 O   0  0  0  0  0  0  0  0  0  0  0  0
   -5.7440   -0.9460    1.6570 N   0  0  0  0  0  0  0  0  0  0  0  0
   -5.6490   -0.6770    0.3500 C   0  0  0  0  0  0  0  0  0  0  0  0
   -6.6160   -1.0120   -0.4420 O   0  0  0  0  0  0  0  0  0  0  0  0
   -4.5930   -0.0710   -0.1900 N   0  0  0  0  0  0  0  0  0  0  0  0
   -3.4900    0.3410    0.5380 C   0  0  0  0  0  0  0  0  0  0  0  0
   -0.1920    1.9680    0.6170 C   0  0  1  0  0  0  0  0  0  0  0  0
    0.7280    1.8930    1.6570 O   0  0  0  0  0  0  0  0  0  0  0  0
  2  1  1  6
  2  3  1  0
  2 12  1  0
  2 25  1  0
  4  3  1  1
  4  5  1  0
  4  7  1  0
  5  6  1  0
  7  8  1  0
  8  9  1  0
  9 10  2  0
  9 11  1  0
 12 13  1  0
 13 14  1  0
 14 15  2  0
 14 24  1  0
 15 16  1  0
 15 25  1  0
 16 17  1  0
 17 18  1  0
 17 24  2  0
 18 19  2  0
 18 20  1  0
 20 21  1  0
 21 22  2  0
 21 23  1  0
 23 24  1  0
 25 26  1  1
M  CHG  1  12   1
M  END
