
     RDKit          3D

 26 27  0  0  0  0  0  0  0  0999 V2000
    5.6450   -4.4310    2.7810 N   0  0  0  0  0  0  0  0  0  0  0  0
    4.7660   -3.5730    2.0960 C   0  0  0  0  0  0  0  0  0  0  0  0
    3.5270   -3.8400    2.0570 O   0  0  0  0  0  0  0  0  0  0  0  0
    5.3120   -2.3730    1.4350 C   0  0  0  0  0  0  0  0  0  0  0  0
    4.2270   -1.6490    0.8040 N   0  0  0  0  0  0  0  0  0  0  0  0
    3.2120   -1.1660    1.5610 C   0  0  0  0  0  0  0  0  0  0  0  0
    3.2200   -1.3580    2.8520 O   0  0  0  0  0  0  0  0  0  0  0  0
    2.1130   -0.4760    1.2350 N   0  0  0  0  0  0  0  0  0  0  0  0
    1.0480    0.2070    0.8250 C   0  0  0  0  0  0  0  0  0  0  0  0
    0.3090    0.5010    1.8620 O   0  0  0  0  0  0  0  0  0  0  0  0
    0.6320    0.6170   -0.4230 N   0  0  0  0  0  0  0  0  0  0  0  0
   -0.5940    1.3270   -0.4810 C   0  0  0  0  0  0  0  0  0  0  0  0
   -1.6360    0.9070   -1.1040 C   0  0  0  0  0  0  0  0  0  0  0  0
   -1.9080   -0.2580   -1.8560 C   0  0  0  0  0  0  0  0  0  0  0  0
   -3.1660   -0.3690   -2.4260 C   0  0  0  0  0  0  0  0  0  0  0  0
   -3.4980   -1.5430   -3.2140 C   0  0  0  0  0  0  0  0  0  0  0  0
   -3.2170   -2.8770   -2.6590 C   0  0  0  0  0  0  0  0  0  0  0  0
   -2.0900   -3.0370   -1.8210 N   0  0  0  0  0  0  0  0  0  0  0  0
   -0.9680   -1.6940   -2.2070 S   0  0  0  0  0  0  0  0  0  0  0  0
    0.1640   -1.8920   -1.2400 O   0  0  0  0  0  0  0  0  0  0  0  0
   -0.5790    2.6170    0.2480 C   0  0  0  0  0  0  0  0  0  0  0  0
    0.4790    3.0070    0.8600 O   0  0  0  0  0  0  0  0  0  0  0  0
   -1.6620    3.4790    0.3300 N   0  0  0  0  0  0  0  0  0  0  0  0
   -1.6270    4.7460    1.0530 C   0  0  1  0  0  0  0  0  0  0  0  0
   -2.2900    5.8890    0.2740 C   0  0  0  0  0  0  0  0  0  0  0  0
   -2.8290    5.3740    1.5780 C   0  0  0  0  0  0  0  0  0  0  0  0
  1  2  1  0
  2  3  2  0
  2  4  1  0
  4  5  1  0
  5  6  1  0
  6  7  2  0
  6  8  1  0
  8  9  1  0
  9 10  2  0
  9 11  1  0
 11 12  1  0
 12 13  2  3
 12 21  1  0
 13 14  1  0
 14 15  2  0
 14 19  1  0
 15 16  1  0
 16 17  1  0
 17 18  1  0
 19 18  1  1
 19 20  2  0
 21 22  2  0
 21 23  1  0
 24 23  1  6
 24 25  1  0
 24 26  1  0
 25 26  1  0
M  CHG  1  18   1
M  END
