
     RDKit          3D

 26 27  0  0  0  0  0  0  0  0999 V2000
    4.4910   -0.7280    1.1120 C   0  0  0  0  0  0  0  0  0  0  0  0
    3.0700   -0.5820    1.6370 C   0  0  1  0  0  0  0  0  0  0  0  0
    1.9010   -1.4910    0.5910 S   0  0  0  0  0  0  0  0  0  0  0  0
    1.8320   -0.6900   -1.0300 C   0  0  0  0  0  0  0  0  0  0  0  0
    1.1570    0.7130   -0.9720 C   0  0  0  0  0  0  0  0  0  0  0  0
   -0.1690    0.6350   -0.5220 N   0  0  0  0  0  0  0  0  0  0  0  0
   -0.6520    0.7920    0.8200 C   0  0  0  0  0  0  0  0  0  0  0  0
    0.1810    0.8960    1.7270 O   0  0  0  0  0  0  0  0  0  0  0  0
   -2.1030    0.8250    1.0580 C   0  0  2  0  0  0  0  0  0  0  0  0
   -2.4480    0.2160    2.3340 N   0  0  0  0  0  0  0  0  0  0  0  0
   -2.9650    0.9700    3.3880 C   0  0  0  0  0  0  0  0  0  0  0  0
   -3.3030    0.3680    4.6370 N   0  0  0  0  0  0  0  0  0  0  0  0
   -3.1350    2.2180    3.2180 O   0  0  0  0  0  0  0  0  0  0  0  0
   -2.9810    0.2370    0.0340 C   0  0  0  0  0  0  0  0  0  0  0  0
   -2.2680   -0.6500   -1.0000 C   0  0  1  0  0  0  0  0  0  0  0  0
   -3.1400   -1.0270   -1.9840 O   0  0  0  0  0  0  0  0  0  0  0  0
   -3.1350   -0.5360   -3.2640 C   0  0  0  0  0  0  0  0  0  0  0  0
   -4.0120   -0.8620   -4.1300 O   0  0  0  0  0  0  0  0  0  0  0  0
   -2.1160    0.3670   -3.6300 N   0  0  0  0  0  0  0  0  0  0  0  0
   -1.1000    0.7660   -2.6770 C   0  0  0  0  0  0  0  0  0  0  0  0
   -0.0530    1.7470   -3.0330 C   0  0  0  0  0  0  0  0  0  0  0  0
    0.8510    1.4070   -4.0390 N   0  0  0  0  0  0  0  0  0  0  0  0
   -1.1600    0.2700   -1.4780 C   0  0  0  0  0  0  0  0  0  0  0  0
    3.0480   -1.0650    3.0300 C   0  0  0  0  0  0  0  0  0  0  0  0
    3.4080   -2.4070    3.3630 N   0  0  0  0  0  0  0  0  0  0  0  0
    2.7040   -0.2780    3.9510 O   0  0  0  0  0  0  0  0  0  0  0  0
  2  1  1  6
  2  3  1  0
  2 24  1  0
  3  4  1  0
  4  5  1  0
  5  6  1  0
  6  7  1  0
  6 23  1  0
  7  8  2  0
  7  9  1  0
  9 10  1  1
  9 14  1  0
 10 11  1  0
 11 12  1  0
 11 13  2  0
 15 14  1  1
 15 16  1  0
 15 23  1  0
 16 17  1  0
 17 18  2  0
 17 19  1  0
 19 20  1  0
 20 21  1  0
 20 23  2  0
 21 22  1  0
 24 25  1  0
 24 26  2  0
M  CHG  1  22   1
M  END
