
     RDKit          3D

 26 27  0  0  0  0  0  0  0  0999 V2000
   -5.7810   -0.2400   -1.0030 C   0  0  0  0  0  0  0  0  0  0  0  0
   -4.5100   -0.2150   -0.1860 C   0  0  1  0  0  0  0  0  0  0  0  0
   -4.8810   -0.5190    1.2400 C   0  0  0  0  0  0  0  0  0  0  0  0
   -4.5580    0.3850    2.2810 N   0  0  0  0  0  0  0  0  0  0  0  0
   -5.4840   -1.6030    1.4360 O   0  0  0  0  0  0  0  0  0  0  0  0
   -3.5910   -1.3420   -0.6340 C   0  0  0  0  0  0  0  0  0  0  0  0
   -2.3250   -1.2460    0.1720 C   0  0  0  0  0  0  0  0  0  0  0  0
   -1.6350    0.0880   -0.0400 C   0  0  1  0  0  0  0  0  0  0  0  0
   -0.3670   -0.1550   -0.6320 N   0  0  0  0  0  0  0  0  0  0  0  0
    0.8320    0.3120    0.0410 C   0  0  0  0  0  0  0  0  0  0  0  0
    0.7080    0.9170    1.1260 O   0  0  0  0  0  0  0  0  0  0  0  0
    2.0590    0.0730   -0.5390 N   0  0  0  0  0  0  0  0  0  0  0  0
    3.3950    0.4540   -0.0620 C   0  0  0  0  0  0  0  0  0  0  0  0
    3.4910    1.1810    0.9880 C   0  0  0  0  0  0  0  0  0  0  0  0
    4.5750    1.7420    1.6950 C   0  0  0  0  0  0  0  0  0  0  0  0
    5.9240    1.7530    1.4090 N   0  0  0  0  0  0  0  0  0  0  0  0
    4.2460    2.3580    2.8130 O   0  0  0  0  0  0  0  0  0  0  0  0
    4.4910   -0.3500   -0.7070 C   0  0  0  0  0  0  0  0  0  0  0  0
    4.2720   -0.9380   -1.8720 C   0  0  0  0  0  0  0  0  0  0  0  0
    5.7840   -1.7860   -2.3130 S   0  0  0  0  0  0  0  0  0  0  0  0
    6.4950   -1.0660   -3.4400 O   0  0  0  0  0  0  0  0  0  0  0  0
    6.5470   -1.5780   -0.7570 C   0  0  0  0  0  0  0  0  0  0  0  0
    7.5890   -2.1080   -0.3610 O   0  0  0  0  0  0  0  0  0  0  0  0
    5.6900   -0.6730   -0.0850 N   0  0  0  0  0  0  0  0  0  0  0  0
   -2.5360    0.9340   -0.9240 C   0  0  0  0  0  0  0  0  0  0  0  0
   -3.8290    1.0440   -0.2870 N   0  0  0  0  0  0  0  0  0  0  0  0
  2  1  1  6
  2  3  1  0
  2  6  1  0
  2 26  1  0
  3  4  1  0
  3  5  2  0
  6  7  1  0
  7  8  1  0
  8  9  1  6
  8 25  1  0
  9 10  1  0
 10 11  2  0
 10 12  1  0
 12 13  1  0
 13 14  2  3
 13 18  1  0
 14 15  1  0
 15 16  1  0
 15 17  2  0
 18 19  2  0
 18 24  1  0
 20 19  1  1
 20 21  2  0
 20 22  1  0
 22 23  2  0
 22 24  1  0
 25 26  1  0
M  CHG  1  26   1
M  END
