
     RDKit          3D

 26 27  0  0  0  0  0  0  0  0999 V2000
    7.2970   -1.3150   -0.8510 C   0  0  0  0  0  0  0  0  0  0  0  0
    7.2030   -1.0910    0.4900 O   0  0  0  0  0  0  0  0  0  0  0  0
    5.9490   -1.1320    1.0460 C   0  0  0  0  0  0  0  0  0  0  0  0
    5.0230   -0.0670    0.4950 C   0  0  0  0  0  0  0  0  0  0  0  0
    5.4330    0.7340   -0.3230 O   0  0  0  0  0  0  0  0  0  0  0  0
    3.6970   -0.0390    0.9530 N   0  0  0  0  0  0  0  0  0  0  0  0
    2.6250    0.7780    0.6610 C   0  0  0  0  0  0  0  0  0  0  0  0
    2.4020    1.7800   -0.0940 C   0  0  0  0  0  0  0  0  0  0  0  0
    3.3670    2.4060   -0.9680 N   0  0  0  0  0  0  0  0  0  0  0  0
    1.0230    2.3420   -0.0430 C   0  0  0  0  0  0  0  0  0  0  0  0
    0.0530    1.2080    0.1850 C   0  0  2  0  0  0  0  0  0  0  0  0
    0.0820    0.3130   -0.9250 N   0  0  0  0  0  0  0  0  0  0  0  0
   -1.1070   -0.3180   -1.3760 C   0  0  0  0  0  0  0  0  0  0  0  0
   -1.1790   -0.8080   -2.5240 O   0  0  0  0  0  0  0  0  0  0  0  0
   -2.2490   -0.3660   -0.4250 C   0  0  2  0  0  0  0  0  0  0  0  0
   -1.8660   -1.3330    0.6810 C   0  0  0  0  0  0  0  0  0  0  0  0
   -3.4850   -0.8280   -1.1590 C   0  0  0  0  0  0  0  0  0  0  0  0
   -4.6100   -0.8700   -0.1970 C   0  0  0  0  0  0  0  0  0  0  0  0
   -4.4620   -0.5550    1.0050 O   0  0  0  0  0  0  0  0  0  0  0  0
   -5.9090   -1.2750   -0.6190 N   0  0  0  0  0  0  0  0  0  0  0  0
   -7.0150   -1.3200    0.3060 C   0  0  0  0  0  0  0  0  0  0  0  0
   -7.2490    0.0030    0.8660 N   0  0  0  0  0  0  0  0  0  0  0  0
   -2.4230    0.9530    0.1360 N   0  0  0  0  0  0  0  0  0  0  0  0
   -1.2540    1.6200    0.6290 C   0  0  0  0  0  0  0  0  0  0  0  0
   -1.3850    2.5580    1.4420 O   0  0  0  0  0  0  0  0  0  0  0  0
    1.0340    0.4150    1.5280 S   0  0  0  0  0  0  0  0  0  0  0  0
  1  2  1  0
  2  3  1  0
  3  4  1  0
  4  5  2  0
  4  6  1  0
  6  7  1  0
  7  8  2  0
  7 26  1  0
  8  9  1  0
  8 10  1  0
 11 10  1  6
 11 12  1  0
 11 24  1  0
 11 26  1  0
 12 13  1  0
 13 14  2  0
 13 15  1  0
 15 16  1  1
 15 17  1  0
 15 23  1  0
 17 18  1  0
 18 19  2  0
 18 20  1  0
 20 21  1  0
 21 22  1  0
 23 24  1  0
 24 25  2  0
M  CHG  1   9   1
M  END
