
     RDKit          3D

 21 24  0  0  0  0  0  0  0  0999 V2000
   -3.8840    0.0160    0.5220 C   0  0  0  0  0  0  0  0  0  0  0  0
   -3.0380   -1.0160   -0.2300 C   0  0  2  0  0  0  0  0  0  0  0  0
   -2.6300   -1.9590    0.6810 O   0  0  0  0  0  0  0  0  0  0  0  0
   -1.4450   -2.5890    0.3330 C   0  0  0  0  0  0  0  0  0  0  0  0
   -0.2630   -1.6330    0.4020 C   0  0  1  0  0  0  0  0  0  0  0  0
    0.6800   -2.0340   -0.7010 C   0  0  0  0  0  0  0  0  0  0  0  0
    2.0400   -1.5580   -0.2990 C   0  0  0  0  0  0  0  0  0  0  0  0
    3.1760   -2.1200   -0.7130 C   0  0  0  0  0  0  0  0  0  0  0  0
    4.2980   -1.3920   -0.1200 C   0  0  0  0  0  0  0  0  0  0  0  0
    3.6420   -0.3330    0.6900 C   0  0  0  0  0  0  0  0  0  0  0  0
    2.3270   -0.4330    0.5830 C   0  0  0  0  0  0  0  0  0  0  0  0
    1.3490    0.4310    1.2390 C   0  0  0  0  0  0  0  0  0  0  0  0
    0.1910    0.8570    0.3110 C   0  0  2  0  0  0  0  0  0  0  0  0
    0.8310    1.2770   -0.9470 C   0  0  0  0  0  0  0  0  0  0  0  0
    1.4130    2.6520   -0.5740 C   0  0  0  0  0  0  0  0  0  0  0  0
    0.4090    3.2370    0.3940 C   0  0  0  0  0  0  0  0  0  0  0  0
   -0.3160    2.0990    1.0210 C   0  0  0  0  0  0  0  0  0  0  0  0
   -0.8170   -0.2230    0.2500 C   0  0  2  0  0  0  0  0  0  0  0  0
   -1.5360   -0.0380    1.4730 O   0  0  0  0  0  0  0  0  0  0  0  0
   -1.7980   -0.2920   -0.8220 C   0  0  2  0  0  0  0  0  0  0  0  0
   -2.2680    0.8610   -1.5670 C   0  0  0  0  0  0  0  0  0  0  0  0
  2  1  1  1
  2  3  1  0
  2 20  1  0
  3  4  1  0
  5  4  1  6
  5  6  1  0
  5 18  1  0
  6  7  1  0
  7  8  2  0
  7 11  1  0
  8  9  1  0
  9 10  1  0
 10 11  2  0
 11 12  1  0
 13 12  1  1
 13 14  1  0
 13 17  1  0
 13 18  1  0
 14 15  1  0
 15 16  1  0
 16 17  1  0
 18 19  1  1
 18 20  1  0
 20 21  1  1
M  END
