
     RDKit          3D

 26 27  0  0  0  0  0  0  0  0999 V2000
    8.4470   -1.0260    0.9030 C   0  0  0  0  0  0  0  0  0  0  0  0
    8.0930    0.2210    0.1170 C   0  0  1  0  0  0  0  0  0  0  0  0
    9.0110    0.4680   -0.8740 O   0  0  0  0  0  0  0  0  0  0  0  0
    6.7080    0.0150   -0.4480 C   0  0  0  0  0  0  0  0  0  0  0  0
    6.2320    0.8540   -1.4310 C   0  0  0  0  0  0  0  0  0  0  0  0
    4.9710    0.6590   -1.9360 C   0  0  0  0  0  0  0  0  0  0  0  0
    4.1460   -0.3770   -1.4750 C   0  0  0  0  0  0  0  0  0  0  0  0
    2.8520   -0.5450   -2.0420 N   0  0  0  0  0  0  0  0  0  0  0  0
    1.6790   -0.8080   -1.3080 N   0  0  0  0  0  0  0  0  0  0  0  0
    0.6130    0.1240   -1.2910 C   0  0  0  0  0  0  0  0  0  0  0  0
    0.6800    1.2080   -1.9260 O   0  0  0  0  0  0  0  0  0  0  0  0
   -0.5890   -0.1570   -0.5300 C   0  0  0  0  0  0  0  0  0  0  0  0
   -0.7820   -1.2240    0.1100 O   0  0  0  0  0  0  0  0  0  0  0  0
   -1.6430    0.8170   -0.4770 N   0  0  0  0  0  0  0  0  0  0  0  0
   -2.8510    0.5270    0.2870 C   0  0  1  0  0  0  0  0  0  0  0  0
   -2.9470    1.1240    1.6600 C   0  0  0  0  0  0  0  0  0  0  0  0
   -3.7360    1.6980    0.5480 C   0  0  2  0  0  0  0  0  0  0  0  0
   -5.4710    1.5600    0.4340 S   0  0  0  0  0  0  0  0  0  0  0  0
   -6.0020    1.6600   -0.9840 O   0  0  0  0  0  0  0  0  0  0  0  0
   -6.2990    0.4400    1.4730 C   0  0  2  0  0  0  0  0  0  0  0  0
   -5.9170   -0.9960    1.3350 C   0  0  0  0  0  0  0  0  0  0  0  0
   -6.1060   -1.5600    0.0390 N   0  0  0  0  0  0  0  0  0  0  0  0
   -7.8050    0.6460    1.3130 C   0  0  0  0  0  0  0  0  0  0  0  0
   -8.0910    0.4080   -0.0350 O   0  0  0  0  0  0  0  0  0  0  0  0
    4.6670   -1.1570   -0.5180 N   0  0  0  0  0  0  0  0  0  0  0  0
    5.8970   -0.9660   -0.0280 N   0  0  0  0  0  0  0  0  0  0  0  0
  2  1  1  6
  2  3  1  0
  2  4  1  0
  4  5  2  0
  4 26  1  0
  5  6  1  0
  6  7  2  0
  7  8  1  0
  7 25  1  0
  8  9  1  0
  9 10  1  0
 10 11  2  0
 10 12  1  0
 12 13  2  0
 12 14  1  0
 15 14  1  6
 15 16  1  0
 15 17  1  0
 17 16  1  1
 17 18  1  0
 18 19  2  0
 18 20  1  6
 20 21  1  6
 20 23  1  0
 21 22  1  0
 23 24  1  0
 25 26  2  0
M  CHG  1  25   1
M  END
