
     RDKit          3D

 26 29  0  0  0  0  0  0  0  0999 V2000
   -4.9040   -2.6000    1.7280 C   0  0  0  0  0  0  0  0  0  0  0  0
   -4.1810   -1.6520    0.8740 C   0  0  0  0  0  0  0  0  0  0  0  0
   -3.3390   -2.0990   -0.1020 C   0  0  0  0  0  0  0  0  0  0  0  0
   -2.6150   -1.2440   -0.9620 C   0  0  0  0  0  0  0  0  0  0  0  0
   -1.8350   -1.7780   -2.0660 C   0  0  0  0  0  0  0  0  0  0  0  0
   -2.7810    0.1110   -0.7830 C   0  0  0  0  0  0  0  0  0  0  0  0
   -2.1340    1.0070   -1.5810 C   0  0  0  0  0  0  0  0  0  0  0  0
   -1.0630    0.6370   -2.4950 C   0  0  0  0  0  0  0  0  0  0  0  0
    0.2620    0.7030   -1.9120 N   0  0  0  0  0  0  0  0  0  0  0  0
    0.9900    1.8310   -1.9520 N   0  0  0  0  0  0  0  0  0  0  0  0
    2.1790    1.6410   -1.3380 C   0  0  0  0  0  0  0  0  0  0  0  0
    2.1690    0.3360   -0.9090 C   0  0  0  0  0  0  0  0  0  0  0  0
    3.2070   -0.3760   -0.2120 N   0  0  0  0  0  0  0  0  0  0  0  0
    4.4540    0.1740    0.1380 C   0  0  0  0  0  0  0  0  0  0  0  0
    4.7220    1.3460   -0.1500 O   0  0  0  0  0  0  0  0  0  0  0  0
    5.4530   -0.5810    0.8290 N   0  0  0  0  0  0  0  0  0  0  0  0
    6.7490   -0.0530    1.1970 C   0  0  2  0  0  0  0  0  0  0  0  0
    7.8680   -1.0130    0.9640 C   0  0  0  0  0  0  0  0  0  0  0  0
    7.4850   -0.6330    2.3530 C   0  0  0  0  0  0  0  0  0  0  0  0
    0.9810   -0.1590   -1.2920 N   0  0  0  0  0  0  0  0  0  0  0  0
   -2.4020    2.3810   -1.3450 C   0  0  0  0  0  0  0  0  0  0  0  0
   -3.2500    2.8450   -0.3800 C   0  0  0  0  0  0  0  0  0  0  0  0
   -3.8750    1.9280    0.4060 C   0  0  0  0  0  0  0  0  0  0  0  0
   -4.7980    2.4030    1.4630 C   0  0  0  0  0  0  0  0  0  0  0  0
   -3.6630    0.5780    0.2320 C   0  0  0  0  0  0  0  0  0  0  0  0
   -4.3400   -0.3130    1.0350 C   0  0  0  0  0  0  0  0  0  0  0  0
  1  2  1  0
  2  3  2  0
  2 26  1  0
  3  4  1  0
  4  5  1  0
  4  6  2  0
  6  7  1  0
  6 25  1  0
  7  8  1  0
  7 21  2  0
  8  9  1  0
  9 10  1  0
  9 20  1  0
 10 11  2  0
 11 12  1  0
 12 13  1  0
 12 20  2  0
 13 14  1  0
 14 15  2  0
 14 16  1  0
 17 16  1  1
 17 18  1  0
 17 19  1  0
 18 19  1  0
 21 22  1  0
 22 23  2  0
 23 24  1  0
 23 25  1  0
 25 26  2  0
M  END
