
     RDKit          3D

 26 29  0  0  0  0  0  0  0  0999 V2000
    3.3850   -1.1260   -3.5490 C   0  0  0  0  0  0  0  0  0  0  0  0
    3.9130   -1.1700   -2.1680 C   0  0  0  0  0  0  0  0  0  0  0  0
    5.1690   -1.3870   -1.7540 N   0  0  0  0  0  0  0  0  0  0  0  0
    5.2390   -1.3490   -0.4410 N   0  0  0  0  0  0  0  0  0  0  0  0
    4.0110   -1.1000    0.1040 C   0  0  0  0  0  0  0  0  0  0  0  0
    3.6980   -0.9850    1.5510 C   0  0  1  0  0  0  0  0  0  0  0  0
    4.9760   -1.3420    2.3100 C   0  0  0  0  0  0  0  0  0  0  0  0
    3.3560    0.4390    1.8870 C   0  0  0  0  0  0  0  0  0  0  0  0
    3.1700   -0.9860   -0.9950 C   0  0  0  0  0  0  0  0  0  0  0  0
    1.7920   -0.7400   -0.9610 N   0  0  0  0  0  0  0  0  0  0  0  0
    1.2950    0.6130   -1.0370 C   0  0  0  0  0  0  0  0  0  0  0  0
   -0.1740    0.6350   -1.0270 N   0  0  0  0  0  0  0  0  0  0  0  0
   -0.8460    0.5760   -2.1750 N   0  0  0  0  0  0  0  0  0  0  0  0
   -2.1640    0.5890   -2.2710 C   0  0  0  0  0  0  0  0  0  0  0  0
   -2.9350    0.6690   -1.1250 C   0  0  0  0  0  0  0  0  0  0  0  0
   -4.3200    0.6850   -1.1970 C   0  0  0  0  0  0  0  0  0  0  0  0
   -5.0770    0.7650   -0.0460 C   0  0  0  0  0  0  0  0  0  0  0  0
   -6.4580    0.7820   -0.1030 C   0  0  0  0  0  0  0  0  0  0  0  0
   -7.2050    0.8620    1.0540 C   0  0  0  0  0  0  0  0  0  0  0  0
   -6.5360    0.9250    2.2660 C   0  0  0  0  0  0  0  0  0  0  0  0
   -5.1530    0.9080    2.3030 C   0  0  0  0  0  0  0  0  0  0  0  0
   -4.3880    0.8270    1.1470 C   0  0  0  0  0  0  0  0  0  0  0  0
   -3.0130    0.8130    1.2340 C   0  0  0  0  0  0  0  0  0  0  0  0
   -2.2480    0.7310    0.0690 C   0  0  0  0  0  0  0  0  0  0  0  0
   -0.8700    0.7140    0.1170 C   0  0  0  0  0  0  0  0  0  0  0  0
   -0.2960    0.7720    1.2210 O   0  0  0  0  0  0  0  0  0  0  0  0
  1  2  1  0
  2  3  1  0
  2  9  2  0
  3  4  1  0
  4  5  2  0
  5  6  1  0
  5  9  1  0
  6  7  1  1
  6  8  1  0
  9 10  1  0
 10 11  1  0
 11 12  1  0
 12 13  1  0
 12 25  1  0
 13 14  2  0
 14 15  1  0
 15 16  2  0
 15 24  1  0
 16 17  1  0
 17 18  2  0
 17 22  1  0
 18 19  1  0
 19 20  2  0
 20 21  1  0
 21 22  2  0
 22 23  1  0
 23 24  2  0
 24 25  1  0
 25 26  2  0
M  END
