
     RDKit          3D

 26 29  0  0  0  0  0  0  0  0999 V2000
    2.0780    1.1250   -0.3860 O   0  0  0  0  0  0  0  0  0  0  0  0
    2.4970   -0.0430   -0.2220 C   0  0  0  0  0  0  0  0  0  0  0  0
    3.8600   -0.3170   -0.1460 N   0  0  0  0  0  0  0  0  0  0  0  0
    4.8590    0.7550   -0.2500 C   0  0  0  0  0  0  0  0  0  0  0  0
    4.8640    1.4240    1.0840 C   0  0  0  0  0  0  0  0  0  0  0  0
    4.2960    2.5770    1.4610 N   0  0  0  0  0  0  0  0  0  0  0  0
    4.5700    2.7540    2.7700 C   0  0  0  0  0  0  0  0  0  0  0  0
    5.3050    1.7150    3.2020 N   0  0  0  0  0  0  0  0  0  0  0  0
    5.4770    0.9170    2.1740 N   0  0  0  0  0  0  0  0  0  0  0  0
    1.5240   -1.1250   -0.1090 C   0  0  0  0  0  0  0  0  0  0  0  0
    1.8710   -2.4380    0.1240 C   0  0  0  0  0  0  0  0  0  0  0  0
    0.9140   -3.4150    0.2200 C   0  0  0  0  0  0  0  0  0  0  0  0
   -0.4160   -3.0670    0.0800 C   0  0  0  0  0  0  0  0  0  0  0  0
   -0.8060   -1.7430   -0.1580 C   0  0  0  0  0  0  0  0  0  0  0  0
   -2.1880   -1.3700   -0.4070 C   0  0  0  0  0  0  0  0  0  0  0  0
   -3.0610   -2.3230   -0.6400 C   0  0  0  0  0  0  0  0  0  0  0  0
   -4.5200   -2.2440   -0.9280 C   0  0  0  0  0  0  0  0  0  0  0  0
   -5.2100   -1.1430   -1.1690 C   0  0  0  0  0  0  0  0  0  0  0  0
   -4.8390    0.2600   -1.2330 C   0  0  0  0  0  0  0  0  0  0  0  0
   -3.6490    0.7790   -0.8970 C   0  0  0  0  0  0  0  0  0  0  0  0
   -3.6350    2.2250   -1.0790 C   0  0  0  0  0  0  0  0  0  0  0  0
   -2.7340    2.8530   -0.0990 C   0  0  0  0  0  0  0  0  0  0  0  0
   -1.8580    2.1590    0.5850 C   0  0  0  0  0  0  0  0  0  0  0  0
   -1.6830    0.7120    0.4760 C   0  0  0  0  0  0  0  0  0  0  0  0
   -2.4810    0.0540   -0.3510 C   0  0  0  0  0  0  0  0  0  0  0  0
    0.2080   -0.8750   -0.2330 N   0  0  0  0  0  0  0  0  0  0  0  0
  1  2  2  0
  2  3  1  0
  2 10  1  0
  3  4  1  0
  4  5  1  0
  5  6  1  0
  5  9  2  0
  6  7  2  0
  7  8  1  0
  8  9  1  0
 10 11  2  0
 10 26  1  0
 11 12  1  0
 12 13  2  0
 13 14  1  0
 14 15  1  0
 14 26  2  0
 15 16  2  0
 15 25  1  0
 16 17  1  0
 17 18  2  0
 18 19  1  0
 19 20  2  0
 20 21  1  0
 20 25  1  0
 21 22  1  0
 22 23  2  0
 23 24  1  0
 24 25  2  0
M  END
