
     RDKit          3D

  8  7  0  0  0  0  0  0  0  0999 V2000
    2.6630    0.9960   -0.4170 C   0  0  0  0  0  0  0  0  0  0  0  0
    1.2480    0.8260   -0.8020 C   0  0  0  0  0  0  0  0  0  0  0  0
    0.4060    0.1080   -0.0070 C   0  0  0  0  0  0  0  0  0  0  0  0
    0.9660   -0.4750    1.2250 C   0  0  0  0  0  0  0  0  0  0  0  0
   -0.9420   -0.0040   -0.4530 C   0  0  0  0  0  0  0  0  0  0  0  0
   -1.3100    0.6780   -1.7500 C   0  0  0  0  0  0  0  0  0  0  0  0
   -1.8760   -0.6480    0.1710 C   0  0  0  0  0  0  0  0  0  0  0  0
   -1.8540   -1.3680    1.3680 N   0  0  0  0  0  0  0  0  0  0  0  0
  1  2  1  0
  2  3  2  3
  3  4  1  0
  3  5  1  0
  5  6  1  0
  5  7  2  3
  7  8  1  0
M  CHG  1   8   1
M  END
