
     RDKit          3D

 26 29  0  0  0  0  0  0  0  0999 V2000
    8.3070   -1.3330    0.9870 C   0  0  0  0  0  0  0  0  0  0  0  0
    6.9350   -0.9100    0.6290 C   0  0  0  0  0  0  0  0  0  0  0  0
    6.3460   -1.4490   -0.5120 C   0  0  0  0  0  0  0  0  0  0  0  0
    5.0710   -1.0270   -0.8400 C   0  0  0  0  0  0  0  0  0  0  0  0
    4.3800   -0.0960   -0.0720 C   0  0  0  0  0  0  0  0  0  0  0  0
    3.0540    0.3490   -0.4390 C   0  0  0  0  0  0  0  0  0  0  0  0
    2.7190    0.4100   -1.7950 C   0  0  0  0  0  0  0  0  0  0  0  0
    1.4790    0.8260   -2.2200 C   0  0  0  0  0  0  0  0  0  0  0  0
    0.5300    1.1970   -1.2950 C   0  0  0  0  0  0  0  0  0  0  0  0
    0.8330    1.1480    0.0570 C   0  0  0  0  0  0  0  0  0  0  0  0
    2.1060    0.7200    0.4750 C   0  0  0  0  0  0  0  0  0  0  0  0
   -0.0140    1.4950    1.1270 N   0  0  0  0  0  0  0  0  0  0  0  0
   -1.3960    1.8570    1.2010 C   0  0  0  0  0  0  0  0  0  0  0  0
   -2.2140    1.4080    0.0540 C   0  0  0  0  0  0  0  0  0  0  0  0
   -3.4710    1.0610    0.4680 N   0  0  0  0  0  0  0  0  0  0  0  0
   -4.4300    0.6200   -0.3410 C   0  0  0  0  0  0  0  0  0  0  0  0
   -5.6940    0.2830    0.1710 N   0  0  0  0  0  0  0  0  0  0  0  0
   -6.0230   -0.8930    0.7860 N   0  0  0  0  0  0  0  0  0  0  0  0
   -5.5090   -2.0930    0.2320 C   0  0  0  0  0  0  0  0  0  0  0  0
   -7.3540   -0.9270    1.2860 C   0  0  0  0  0  0  0  0  0  0  0  0
   -4.1590    0.4990   -1.6820 C   0  0  0  0  0  0  0  0  0  0  0  0
   -2.8930    0.8340   -2.1840 C   0  0  0  0  0  0  0  0  0  0  0  0
   -1.9490    1.2840   -1.2900 C   0  0  0  0  0  0  0  0  0  0  0  0
   -0.7000    1.5980   -1.8870 O   0  0  0  0  0  0  0  0  0  0  0  0
    5.0080    0.4020    1.0420 C   0  0  0  0  0  0  0  0  0  0  0  0
    6.2660   -0.0170    1.3620 N   0  0  0  0  0  0  0  0  0  0  0  0
  1  2  1  0
  2  3  2  0
  2 26  1  0
  3  4  1  0
  4  5  2  0
  5  6  1  0
  5 25  1  0
  6  7  2  0
  6 11  1  0
  7  8  1  0
  8  9  2  0
  9 10  1  0
  9 24  1  0
 10 11  2  0
 10 12  1  0
 12 13  1  0
 13 14  1  0
 14 15  2  0
 14 23  1  0
 15 16  1  0
 16 17  1  0
 16 21  2  0
 17 18  1  0
 18 19  1  0
 18 20  1  0
 21 22  1  0
 22 23  2  0
 23 24  1  0
 25 26  2  0
M  END
