
     RDKit          3D

 26 29  0  0  0  0  0  0  0  0999 V2000
   -1.6650    0.3340   -1.7130 O   0  0  0  0  0  0  0  0  0  0  0  0
   -0.7030    0.3480   -2.5020 C   0  0  0  0  0  0  0  0  0  0  0  0
   -0.8760    0.9600   -3.7710 N   0  0  0  0  0  0  0  0  0  0  0  0
   -2.0160    1.5960   -4.3060 C   0  0  0  0  0  0  0  0  0  0  0  0
   -2.5410    2.8310   -3.6420 C   0  0  2  0  0  0  0  0  0  0  0  0
   -1.4740    3.8960   -3.6100 C   0  0  0  0  0  0  0  0  0  0  0  0
   -1.3620    4.6500   -2.3330 C   0  0  0  0  0  0  0  0  0  0  0  0
   -1.5710    3.7570   -1.1180 C   0  0  0  0  0  0  0  0  0  0  0  0
   -2.9540    3.1600   -1.1530 C   0  0  0  0  0  0  0  0  0  0  0  0
   -3.4260    2.7150   -2.4880 C   0  0  0  0  0  0  0  0  0  0  0  0
    0.4980   -0.2490   -2.0750 N   0  0  0  0  0  0  0  0  0  0  0  0
    0.7690   -0.8840   -0.8430 C   0  0  0  0  0  0  0  0  0  0  0  0
   -0.1370   -1.1770    0.1430 C   0  0  0  0  0  0  0  0  0  0  0  0
    0.2270   -1.8030    1.3490 C   0  0  0  0  0  0  0  0  0  0  0  0
    1.5290   -2.1590    1.6010 C   0  0  0  0  0  0  0  0  0  0  0  0
    1.9100   -2.8100    2.8530 C   0  0  0  0  0  0  0  0  0  0  0  0
    3.1820   -3.2060    3.2030 C   0  0  0  0  0  0  0  0  0  0  0  0
    3.1420   -3.7850    4.4660 C   0  0  0  0  0  0  0  0  0  0  0  0
    4.0660   -4.3300    5.2750 N   0  0  0  0  0  0  0  0  0  0  0  0
    3.7880   -4.8420    6.4870 C   0  0  0  0  0  0  0  0  0  0  0  0
    2.4760   -4.7960    6.9070 C   0  0  0  0  0  0  0  0  0  0  0  0
    1.5400   -4.2380    6.0750 C   0  0  0  0  0  0  0  0  0  0  0  0
    1.8540   -3.7340    4.8650 N   0  0  0  0  0  0  0  0  0  0  0  0
    1.1440   -3.1540    3.8970 N   0  0  0  0  0  0  0  0  0  0  0  0
    2.4440   -1.8690    0.6150 C   0  0  0  0  0  0  0  0  0  0  0  0
    2.0940   -1.2560   -0.5660 C   0  0  0  0  0  0  0  0  0  0  0  0
  1  2  2  0
  2  3  1  0
  2 11  1  0
  3  4  1  0
  5  4  1  1
  5  6  1  0
  5 10  1  0
  6  7  1  0
  7  8  1  0
  8  9  1  0
  9 10  1  0
 11 12  1  0
 12 13  2  0
 12 26  1  0
 13 14  1  0
 14 15  2  0
 15 16  1  0
 15 25  1  0
 16 17  1  0
 16 24  2  0
 17 18  2  0
 18 19  1  0
 18 23  1  0
 19 20  2  0
 20 21  1  0
 21 22  2  0
 22 23  1  0
 23 24  1  0
 25 26  2  0
M  END
