
     RDKit          3D

  8  8  0  0  0  0  0  0  0  0999 V2000
    3.2300   -0.0950   -0.5410 N   0  0  0  0  0  0  0  0  0  0  0  0
    1.9960    0.4780   -1.0690 C   0  0  0  0  0  0  0  0  0  0  0  0
    0.9710    0.6450   -0.0220 C   0  0  0  0  0  0  0  0  0  0  0  0
   -0.1940    0.0360   -0.1110 C   0  0  0  0  0  0  0  0  0  0  0  0
   -0.7200   -0.8580   -1.1400 C   0  0  0  0  0  0  0  0  0  0  0  0
   -2.0400   -0.8670   -1.0730 C   0  0  0  0  0  0  0  0  0  0  0  0
   -2.5060    0.0210    0.0060 C   0  0  0  0  0  0  0  0  0  0  0  0
   -1.2890    0.1410    0.8890 C   0  0  0  0  0  0  0  0  0  0  0  0
  1  2  1  0
  2  3  1  0
  3  4  2  3
  4  5  1  0
  4  8  1  0
  5  6  2  0
  6  7  1  0
  7  8  1  0
M  END
