
     RDKit          3D

 26 29  0  0  0  0  0  0  0  0999 V2000
   -1.7660   -3.4770   -1.8220 C   0  0  0  0  0  0  0  0  0  0  0  0
   -2.7050   -3.5380   -0.6750 C   0  0  0  0  0  0  0  0  0  0  0  0
   -2.2010   -3.1060    0.6570 C   0  0  0  0  0  0  0  0  0  0  0  0
   -1.7340   -1.7220    0.6300 N   0  0  0  0  0  0  0  0  0  0  0  0
   -2.5580   -0.7080    0.8190 N   0  0  0  0  0  0  0  0  0  0  0  0
   -1.9070    0.4390    0.7430 C   0  0  0  0  0  0  0  0  0  0  0  0
   -2.4180    1.8200    0.8830 C   0  0  0  0  0  0  0  0  0  0  0  0
   -1.4800    2.8420    0.7960 C   0  0  0  0  0  0  0  0  0  0  0  0
   -1.8790    4.1470    0.9120 C   0  0  0  0  0  0  0  0  0  0  0  0
   -3.1990    4.4700    1.1160 C   0  0  0  0  0  0  0  0  0  0  0  0
   -4.1390    3.4780    1.2060 C   0  0  0  0  0  0  0  0  0  0  0  0
   -3.7230    2.1400    1.0850 C   0  0  0  0  0  0  0  0  0  0  0  0
   -4.6850    1.1600    1.1770 O   0  0  0  0  0  0  0  0  0  0  0  0
   -0.6360    0.1020    0.4970 N   0  0  0  0  0  0  0  0  0  0  0  0
   -0.5090   -1.2600    0.4230 C   0  0  0  0  0  0  0  0  0  0  0  0
    0.7430   -1.9570    0.1930 C   0  0  0  0  0  0  0  0  0  0  0  0
    1.0260   -3.2750    0.0330 C   0  0  0  0  0  0  0  0  0  0  0  0
    2.3740   -3.4470   -0.1240 N   0  0  0  0  0  0  0  0  0  0  0  0
    2.9190   -2.2680   -0.0650 N   0  0  0  0  0  0  0  0  0  0  0  0
    1.9800   -1.3110    0.1260 C   0  0  0  0  0  0  0  0  0  0  0  0
    2.2070    0.1480    0.2200 C   0  0  1  0  0  0  0  0  0  0  0  0
    3.7180    0.3460    0.4250 C   0  0  0  0  0  0  0  0  0  0  0  0
    4.0280    1.8280    0.4830 C   0  0  0  0  0  0  0  0  0  0  0  0
    3.8680    2.3470   -0.9290 C   0  0  0  0  0  0  0  0  0  0  0  0
    3.0500    1.4290   -1.7850 C   0  0  0  0  0  0  0  0  0  0  0  0
    1.8320    0.8700   -1.0650 C   0  0  0  0  0  0  0  0  0  0  0  0
  1  2  1  0
  2  3  1  0
  3  4  1  0
  4  5  1  0
  4 15  1  0
  5  6  2  0
  6  7  1  0
  6 14  1  0
  7  8  2  0
  7 12  1  0
  8  9  1  0
  9 10  2  0
 10 11  1  0
 11 12  2  0
 12 13  1  0
 14 15  2  0
 15 16  1  0
 16 17  2  0
 16 20  1  0
 17 18  1  0
 18 19  1  0
 19 20  2  0
 21 20  1  6
 21 22  1  0
 21 26  1  0
 22 23  1  0
 23 24  1  0
 24 25  1  0
 25 26  1  0
M  END
