
     RDKit          3D

 41 45  0  0  0  0  0  0  0  0999 V2000
   -2.6580   -4.5970    2.6350 C   0  0  0  0  0  0  0  0  0  0  0  0
   -3.4810   -3.6080    1.9170 N   0  0  0  0  0  0  0  0  0  0  0  0
   -2.7650   -2.4190    1.7100 C   0  0  2  0  0  0  0  0  0  0  0  0
   -3.7170   -1.2470    1.7010 C   0  0  0  0  0  0  0  0  0  0  0  0
   -1.6770   -2.2630    0.8050 C   0  0  0  0  0  0  0  0  0  0  0  0
   -1.5370   -2.8690   -0.3320 C   0  0  0  0  0  0  0  0  0  0  0  0
   -2.5000   -3.7710   -0.7980 N   0  0  0  0  0  0  0  0  0  0  0  0
   -3.6720   -3.3050   -1.4780 C   0  0  0  0  0  0  0  0  0  0  0  0
   -2.3170   -5.1810   -0.6440 C   0  0  0  0  0  0  0  0  0  0  0  0
   -0.4480   -2.7170   -1.2120 O   0  0  0  0  0  0  0  0  0  0  0  0
    0.5840   -1.8840   -0.9160 C   0  0  0  0  0  0  0  0  0  0  0  0
    1.6870   -1.7190   -1.7630 C   0  0  0  0  0  0  0  0  0  0  0  0
    2.7130   -0.8790   -1.4320 C   0  0  0  0  0  0  0  0  0  0  0  0
    2.6450   -0.1910   -0.2410 C   0  0  0  0  0  0  0  0  0  0  0  0
    1.5540   -0.3590    0.5880 C   0  0  0  0  0  0  0  0  0  0  0  0
    0.5110   -1.1990    0.2710 C   0  0  0  0  0  0  0  0  0  0  0  0
   -0.6180   -1.2580    1.2010 C   0  0  1  0  0  0  0  0  0  0  0  0
   -1.1400    0.1170    1.3540 C   0  0  0  0  0  0  0  0  0  0  0  0
   -0.9150    0.8320    2.5200 C   0  0  0  0  0  0  0  0  0  0  0  0
   -1.3480    2.1070    2.6890 C   0  0  0  0  0  0  0  0  0  0  0  0
   -1.0470    2.9920    4.1840 Cl  0  0  0  0  0  0  0  0  0  0  0  0
   -2.0500    2.7640    1.6790 C   0  0  0  0  0  0  0  0  0  0  0  0
   -2.2850    2.0780    0.5160 C   0  0  0  0  0  0  0  0  0  0  0  0
   -2.9750    2.6870   -0.5080 O   0  0  0  0  0  0  0  0  0  0  0  0
   -3.5060    3.9580   -0.5630 C   0  0  2  0  0  0  0  0  0  0  0  0
   -4.9890    3.9610   -0.9270 C   0  0  0  0  0  0  0  0  0  0  0  0
   -2.8200    4.7120   -1.6990 C   0  0  0  0  0  0  0  0  0  0  0  0
   -3.1050    3.8650   -3.2480 Cl  0  0  0  0  0  0  0  0  0  0  0  0
   -1.8310    0.7670    0.3620 C   0  0  0  0  0  0  0  0  0  0  0  0
    3.7780    0.7110    0.0900 C   0  0  0  0  0  0  0  0  0  0  0  0
    4.9940   -0.0030   -0.3200 N   0  0  0  0  0  0  0  0  0  0  0  0
    6.3790    0.8230    0.2730 S   0  0  1  0  0  0  0  0  0  0  0  0
    6.2950    0.9630    1.7820 O   0  0  0  0  0  0  0  0  0  0  0  0
    7.6130    0.0850   -0.0840 O   0  0  0  0  0  0  0  0  0  0  0  0
    6.4520    2.4340   -0.4010 C   0  0  0  0  0  0  0  0  0  0  0  0
    7.3820    3.0360   -1.1600 C   0  0  0  0  0  0  0  0  0  0  0  0
    7.2080    4.2950   -1.5580 C   0  0  0  0  0  0  0  0  0  0  0  0
    6.0560    4.9510   -1.1680 C   0  0  0  0  0  0  0  0  0  0  0  0
    5.1980    3.6940   -0.1920 S   0  0  0  0  0  0  0  0  0  0  0  0
    5.0530   -0.0920   -1.7460 C   0  0  0  0  0  0  0  0  0  0  0  0
    3.8600   -0.7400   -2.3690 C   0  0  0  0  0  0  0  0  0  0  0  0
  1  2  1  0
  2  3  1  0
  3  4  1  6
  3  5  1  0
  5  6  2  0
  5 17  1  0
  6  7  1  0
  6 10  1  0
  7  8  1  0
  7  9  1  0
 10 11  1  0
 11 12  2  0
 11 16  1  0
 12 13  1  0
 13 14  2  0
 13 41  1  0
 14 15  1  0
 14 30  1  0
 15 16  2  0
 16 17  1  0
 17 18  1  6
 18 19  2  0
 18 29  1  0
 19 20  1  0
 20 21  1  0
 20 22  2  0
 22 23  1  0
 23 24  1  0
 23 29  2  0
 24 25  1  0
 25 26  1  6
 25 27  1  0
 27 28  1  0
 30 31  1  0
 32 31  1  6
 31 40  1  0
 32 33  2  0
 32 34  2  0
 32 35  1  0
 35 36  2  0
 35 39  1  0
 36 37  1  0
 37 38  2  0
 38 39  1  0
 40 41  1  0
M  CHG  1   2   1
M  END
