
     RDKit          3D

 41 44  0  0  0  0  0  0  0  0999 V2000
    0.6490    3.7610    1.4780 C   0  0  0  0  0  0  0  0  0  0  0  0
   -0.7950    3.9090    1.6250 C   0  0  0  0  0  0  0  0  0  0  0  0
   -1.1520    4.7260    2.6770 C   0  0  0  0  0  0  0  0  0  0  0  0
   -0.1470    5.2680    3.4160 O   0  0  0  0  0  0  0  0  0  0  0  0
   -1.8460    3.3640    0.8740 C   0  0  0  0  0  0  0  0  0  0  0  0
   -1.9670    2.5540   -0.1830 C   0  0  0  0  0  0  0  0  0  0  0  0
   -0.6700    2.1130   -0.7010 C   0  0  0  0  0  0  0  0  0  0  0  0
   -0.4750    1.1360   -1.7530 C   0  0  0  0  0  0  0  0  0  0  0  0
    0.8200    0.3480   -1.3830 C   0  0  0  0  0  0  0  0  0  0  0  0
    0.6760   -0.4010   -0.1610 N   0  0  0  0  0  0  0  0  0  0  0  0
    1.7650   -0.8630    0.5570 C   0  0  0  0  0  0  0  0  0  0  0  0
    1.5150   -1.4940    1.6460 O   0  0  0  0  0  0  0  0  0  0  0  0
    3.1390   -0.7000    0.1890 C   0  0  0  0  0  0  0  0  0  0  0  0
    3.7770    0.1180   -1.2910 S   0  0  0  0  0  0  0  0  0  0  0  0
    5.4640   -0.1190   -0.9650 C   0  0  0  0  0  0  0  0  0  0  0  0
    5.4780   -0.7900    0.2210 C   0  0  0  0  0  0  0  0  0  0  0  0
    4.2990   -1.0840    0.8030 C   0  0  0  0  0  0  0  0  0  0  0  0
    4.1620   -1.8380    2.1270 C   0  0  0  0  0  0  0  0  0  0  0  0
    6.8640   -1.1050    0.7070 C   0  0  0  0  0  0  0  0  0  0  0  0
    7.0910   -1.7150    1.7730 O   0  0  0  0  0  0  0  0  0  0  0  0
    7.9100   -0.6810   -0.0950 O   0  0  0  0  0  0  0  0  0  0  0  0
    7.8170    0.4810   -0.8960 C   0  0  0  0  0  0  0  0  0  0  0  0
    6.6060    0.3100   -1.7830 C   0  0  0  0  0  0  0  0  0  0  0  0
   -0.6580   -0.6970    0.2790 C   0  0  0  0  0  0  0  0  0  0  0  0
   -1.0390   -0.3160    1.6730 C   0  0  0  0  0  0  0  0  0  0  0  0
   -2.5480   -0.1470    1.6720 C   0  0  0  0  0  0  0  0  0  0  0  0
   -2.9610    0.7980    2.4130 O   0  0  0  0  0  0  0  0  0  0  0  0
   -3.4700   -0.9230    0.9510 N   0  0  0  0  0  0  0  0  0  0  0  0
   -3.6210   -1.1500   -0.4540 C   0  0  0  0  0  0  0  0  0  0  0  0
   -3.5090   -2.5590   -0.8920 C   0  0  0  0  0  0  0  0  0  0  0  0
   -3.2850   -3.6120   -0.1080 C   0  0  0  0  0  0  0  0  0  0  0  0
   -3.0990   -3.6340    1.3380 C   0  0  0  0  0  0  0  0  0  0  0  0
   -3.2480   -4.8100   -0.9730 C   0  0  0  0  0  0  0  0  0  0  0  0
   -3.4630   -4.3450   -2.2960 N   0  0  0  0  0  0  0  0  0  0  0  0
   -3.6190   -3.0220   -2.2630 C   0  0  0  0  0  0  0  0  0  0  0  0
   -3.8470   -2.3310   -3.5630 C   0  0  0  0  0  0  0  0  0  0  0  0
   -3.8620   -0.1600   -1.3040 C   0  0  0  0  0  0  0  0  0  0  0  0
   -4.0280    1.2790   -1.0940 C   0  0  0  0  0  0  0  0  0  0  0  0
   -5.3810    1.6090   -1.5150 F   0  0  0  0  0  0  0  0  0  0  0  0
   -3.3060    2.2600   -0.6760 C   0  0  0  0  0  0  0  0  0  0  0  0
   -4.0790    3.5200   -0.6920 O   0  0  0  0  0  0  0  0  0  0  0  0
  1  2  1  0
  2  3  2  3
  2  5  1  0
  3  4  1  0
  5  6  2  3
  6  7  1  0
  6 40  1  0
  7  8  1  0
  8  9  1  0
  9 10  1  0
 10 11  1  0
 10 24  1  0
 11 12  2  0
 11 13  1  0
 13 14  1  0
 13 17  2  0
 14 15  1  0
 15 16  2  0
 15 23  1  0
 16 17  1  0
 16 19  1  0
 17 18  1  0
 19 20  2  0
 19 21  1  0
 21 22  1  0
 22 23  1  0
 24 25  1  0
 25 26  1  0
 26 27  2  0
 26 28  1  0
 28 29  1  0
 29 30  1  0
 29 37  2  0
 30 31  2  0
 30 35  1  0
 31 32  1  0
 31 33  1  0
 33 34  1  0
 34 35  2  0
 35 36  1  0
 37 38  1  0
 38 39  1  0
 38 40  2  0
 40 41  1  0
M  END
