
     RDKit          3D

 41 45  0  0  0  0  0  0  0  0999 V2000
   -0.7610   -2.9430    0.7710 C   0  0  0  0  0  0  0  0  0  0  0  0
   -0.1700   -1.5980    0.9960 O   0  0  0  0  0  0  0  0  0  0  0  0
    1.1020   -1.4330    0.7030 C   0  0  0  0  0  0  0  0  0  0  0  0
    1.8800   -2.7840    0.4030 C   0  0  0  0  0  0  0  0  0  0  0  0
    3.1620   -2.2310    0.2870 N   0  0  0  0  0  0  0  0  0  0  0  0
    3.8830   -1.4100    0.2790 C   0  0  0  0  0  0  0  0  0  0  0  0
    5.2920   -1.2320   -0.5540 C   0  0  0  0  0  0  0  0  0  0  0  0
    5.1210   -1.9480   -1.5960 C   0  0  0  0  0  0  0  0  0  0  0  0
    7.1820   -1.6480   -1.9670 S   0  0  0  0  0  0  0  0  0  0  0  0
    7.3770   -0.6140   -0.5050 C   0  0  0  0  0  0  0  0  0  0  0  0
    8.6100    0.2020   -0.3740 C   0  0  0  0  0  0  0  0  0  0  0  0
    8.9500    0.9110   -1.2780 O   0  0  0  0  0  0  0  0  0  0  0  0
    9.4300    0.1180    0.8460 N   0  0  0  0  0  0  0  0  0  0  0  0
   10.5380    0.9420    1.0290 C   0  0  0  0  0  0  0  0  0  0  0  0
   10.2180    2.4180    1.4360 C   0  0  0  0  0  0  0  0  0  0  0  0
    9.4310    2.2500    2.6460 O   0  0  0  0  0  0  0  0  0  0  0  0
    6.2190   -0.6100   -0.0060 N   0  0  0  0  0  0  0  0  0  0  0  0
    3.2540   -0.1300    0.5160 C   0  0  0  0  0  0  0  0  0  0  0  0
    3.5370    1.1530    0.4440 N   0  0  0  0  0  0  0  0  0  0  0  0
    2.4100    1.8440    0.5210 C   0  0  0  0  0  0  0  0  0  0  0  0
    1.3130    1.0870    0.6830 C   0  0  0  0  0  0  0  0  0  0  0  0
   -0.1480    1.4430    0.6600 C   0  0  0  0  0  0  0  0  0  0  0  0
   -0.5450    2.4370    1.3000 O   0  0  0  0  0  0  0  0  0  0  0  0
   -1.0510    0.6120   -0.0760 C   0  0  0  0  0  0  0  0  0  0  0  0
   -0.3370   -0.0260   -1.0680 O   0  0  0  0  0  0  0  0  0  0  0  0
   -2.3900    0.2080   -0.1490 N   0  0  0  0  0  0  0  0  0  0  0  0
   -2.7000   -0.7360   -1.2060 C   0  0  0  0  0  0  0  0  0  0  0  0
   -4.0530   -0.0770   -1.7580 C   0  0  0  0  0  0  0  0  0  0  0  0
   -5.0190   -0.6510   -0.7890 C   0  0  2  0  0  0  0  0  0  0  0  0
   -6.4230   -0.8330   -1.2040 C   0  0  1  0  0  0  0  0  0  0  0  0
   -6.9100   -1.6710    0.2720 C   0  0  0  0  0  0  0  0  0  0  0  0
   -7.2340   -2.2070    1.2360 N   0  0  0  0  0  0  0  0  0  0  0  0
   -7.3740    0.1990   -1.3500 C   0  0  0  0  0  0  0  0  0  0  0  0
   -8.7190   -0.0790   -0.4270 C   0  0  0  0  0  0  0  0  0  0  0  0
   -9.6200    0.8990   -0.5740 C   0  0  0  0  0  0  0  0  0  0  0  0
   -9.5530    2.0640   -1.3910 C   0  0  0  0  0  0  0  0  0  0  0  0
   -8.4900    2.2370   -2.1190 C   0  0  0  0  0  0  0  0  0  0  0  0
   -7.5410    1.2580   -1.9850 C   0  0  0  0  0  0  0  0  0  0  0  0
   -4.8580    0.2740    0.4260 C   0  0  0  0  0  0  0  0  0  0  0  0
   -3.4810    0.6810    0.6860 C   0  0  0  0  0  0  0  0  0  0  0  0
    1.8350   -0.2980    0.7130 C   0  0  0  0  0  0  0  0  0  0  0  0
  1  2  1  0
  2  3  1  0
  3  4  2  0
  3 41  1  0
  4  5  1  0
  5  6  2  0
  6  7  1  0
  6 18  1  0
  7  8  2  0
  7 17  1  0
  8  9  1  0
  9 10  1  0
 10 11  1  0
 10 17  2  0
 11 12  2  0
 11 13  1  0
 13 14  1  0
 14 15  1  0
 15 16  1  0
 18 19  1  0
 18 41  2  0
 19 20  1  0
 20 21  2  0
 21 22  1  0
 21 41  1  0
 22 23  2  0
 22 24  1  0
 24 25  2  0
 24 26  1  0
 26 27  1  0
 26 40  1  0
 27 28  1  0
 29 28  1  6
 29 30  1  0
 29 39  1  0
 30 31  1  1
 30 33  1  0
 31 32  3  0
 33 34  2  0
 33 38  1  0
 34 35  1  0
 35 36  2  0
 36 37  1  0
 37 38  2  0
 39 40  1  0
M  END
