
     RDKit          3D

 41 45  0  0  0  0  0  0  0  0999 V2000
   11.7170    0.1170    1.4290 C   0  0  0  0  0  0  0  0  0  0  0  0
   10.7660   -0.5680    1.9790 C   0  0  0  0  0  0  0  0  0  0  0  0
    9.3850   -0.2400    1.8330 C   0  0  0  0  0  0  0  0  0  0  0  0
    8.7670    0.9900    1.0080 S   0  0  0  0  0  0  0  0  0  0  0  0
    9.5630    2.3480    0.0120 C   0  0  0  0  0  0  0  0  0  0  0  0
    8.2700    3.0990   -0.2300 C   0  0  0  0  0  0  0  0  0  0  0  0
    7.1490    2.2170   -0.4080 C   0  0  0  0  0  0  0  0  0  0  0  0
    5.7210    2.7000   -1.3850 Cl  0  0  0  0  0  0  0  0  0  0  0  0
    7.1630    1.0330    0.1490 C   0  0  0  0  0  0  0  0  0  0  0  0
    6.1300   -0.0080    0.1270 C   0  0  0  0  0  0  0  0  0  0  0  0
    4.7870    0.2800    0.3240 C   0  0  0  0  0  0  0  0  0  0  0  0
    3.8040   -0.6960    0.2890 C   0  0  0  0  0  0  0  0  0  0  0  0
    4.1480   -2.0060    0.0520 C   0  0  0  0  0  0  0  0  0  0  0  0
    5.4710   -2.3170   -0.1460 C   0  0  0  0  0  0  0  0  0  0  0  0
    6.4460   -1.3160   -0.1070 C   0  0  0  0  0  0  0  0  0  0  0  0
    8.1270   -1.7540   -0.4020 Cl  0  0  0  0  0  0  0  0  0  0  0  0
    2.8980   -2.8010    0.0750 C   0  0  0  0  0  0  0  0  0  0  0  0
    1.9490   -1.8900    0.8230 C   0  0  2  0  0  0  0  0  0  0  0  0
    0.5840   -2.0420    0.1710 C   0  0  0  0  0  0  0  0  0  0  0  0
    0.6890   -1.9340   -1.2720 N   0  0  0  0  0  0  0  0  0  0  0  0
   -0.8330   -2.1040   -2.0380 S   0  0  2  0  0  0  0  0  0  0  0  0
   -1.4590   -3.4500   -1.7230 O   0  0  0  0  0  0  0  0  0  0  0  0
   -0.6590   -2.0810   -3.5390 O   0  0  0  0  0  0  0  0  0  0  0  0
   -1.9090   -0.8310   -1.5180 C   0  0  0  0  0  0  0  0  0  0  0  0
   -1.9510    0.3780   -2.1860 C   0  0  0  0  0  0  0  0  0  0  0  0
   -2.8180    1.3370   -1.7400 C   0  0  0  0  0  0  0  0  0  0  0  0
   -3.6250    1.1020   -0.6570 C   0  0  0  0  0  0  0  0  0  0  0  0
   -4.5600    2.1050   -0.1130 C   0  0  0  0  0  0  0  0  0  0  0  0
   -5.8980    2.2000   -0.6790 C   0  0  0  0  0  0  0  0  0  0  0  0
   -6.8580    1.0930   -0.6170 C   0  0  1  0  0  0  0  0  0  0  0  0
   -6.4330   -0.2030   -1.2710 C   0  0  0  0  0  0  0  0  0  0  0  0
   -7.7430   -0.8580   -1.7640 C   0  0  0  0  0  0  0  0  0  0  0  0
   -8.7330   -0.9210   -0.6230 C   0  0  0  0  0  0  0  0  0  0  0  0
   -8.0930   -0.5600    0.6990 C   0  0  0  0  0  0  0  0  0  0  0  0
   -7.4640    0.7610    0.6320 N   0  0  0  0  0  0  0  0  0  0  0  0
   -7.5330    1.5530    1.7860 C   0  0  0  0  0  0  0  0  0  0  0  0
   -8.1960    1.0750    3.0430 C   0  0  0  0  0  0  0  0  0  0  0  0
   -7.0520    2.7020    1.8500 O   0  0  0  0  0  0  0  0  0  0  0  0
   -3.5490   -0.0840   -0.0430 N   0  0  0  0  0  0  0  0  0  0  0  0
   -2.7200   -1.0790   -0.4230 C   0  0  0  0  0  0  0  0  0  0  0  0
    2.4120   -0.6050    0.4610 O   0  0  0  0  0  0  0  0  0  0  0  0
  1  2  2  0
  2  3  1  0
  3  4  2  3
  4  5  1  6
  4  9  1  0
  5  6  1  0
  6  7  1  0
  7  8  1  0
  7  9  2  0
  9 10  1  0
 10 11  2  0
 10 15  1  0
 11 12  1  0
 12 13  2  0
 12 41  1  0
 13 14  1  0
 13 17  1  0
 14 15  2  0
 15 16  1  0
 17 18  1  0
 18 19  1  6
 18 41  1  0
 19 20  1  0
 21 20  1  1
 21 22  2  0
 21 23  2  0
 21 24  1  0
 24 25  2  0
 24 40  1  0
 25 26  1  0
 26 27  2  0
 27 28  1  0
 27 39  1  0
 28 29  1  0
 30 29  1  1
 30 31  1  0
 30 35  1  0
 31 32  1  0
 32 33  1  0
 33 34  1  0
 34 35  1  0
 35 36  1  0
 36 37  1  0
 36 38  2  0
 39 40  2  0
M  CHG  1  39   1
M  END
