
     RDKit          3D

 41 45  0  0  0  0  0  0  0  0999 V2000
   -3.5400    6.8060   -1.4330 C   0  0  0  0  0  0  0  0  0  0  0  0
   -2.9960    5.6620   -0.6460 C   0  0  0  0  0  0  0  0  0  0  0  0
   -2.6510    5.7990    0.6850 C   0  0  0  0  0  0  0  0  0  0  0  0
   -2.1550    4.7350    1.4110 C   0  0  0  0  0  0  0  0  0  0  0  0
   -1.9810    3.4840    0.8370 C   0  0  0  0  0  0  0  0  0  0  0  0
   -1.4890    2.4140    1.5650 C   0  0  0  0  0  0  0  0  0  0  0  0
   -1.3230    1.1670    0.9890 C   0  0  0  0  0  0  0  0  0  0  0  0
   -1.6670    1.0200   -0.3460 C   0  0  0  0  0  0  0  0  0  0  0  0
   -1.5030   -0.3000   -0.9700 N   0  0  0  0  0  0  0  0  0  0  0  0
   -2.6160   -1.1890   -0.8970 C   0  0  0  0  0  0  0  0  0  0  0  0
   -2.7480   -2.1180    0.2050 C   0  0  2  0  0  0  0  0  0  0  0  0
   -1.7380   -3.1990    0.4090 C   0  0  0  0  0  0  0  0  0  0  0  0
   -1.7200   -3.4460    1.9290 C   0  0  0  0  0  0  0  0  0  0  0  0
   -3.1080   -4.0400    2.2020 C   0  0  0  0  0  0  0  0  0  0  0  0
   -4.2170   -3.2660    1.6060 C   0  0  2  0  0  0  0  0  0  0  0  0
   -5.4550   -4.1630    1.5880 C   0  0  0  0  0  0  0  0  0  0  0  0
   -5.9420   -4.6980    3.2080 S   0  0  0  0  0  0  0  0  0  0  0  0
   -5.8950   -6.2270    3.3150 O   0  0  0  0  0  0  0  0  0  0  0  0
   -4.0430   -2.8000    0.2660 N   0  0  0  0  0  0  0  0  0  0  0  0
    0.0100   -0.6200   -1.7060 S   0  0  1  0  0  0  0  0  0  0  0  0
    0.0980   -2.0240   -2.2790 O   0  0  0  0  0  0  0  0  0  0  0  0
    0.2160    0.3790   -2.8480 O   0  0  0  0  0  0  0  0  0  0  0  0
    1.3470   -0.4420   -0.6140 C   0  0  0  0  0  0  0  0  0  0  0  0
    1.4110   -1.0780    0.5700 C   0  0  0  0  0  0  0  0  0  0  0  0
    2.5230   -0.9330    1.3900 C   0  0  0  0  0  0  0  0  0  0  0  0
    3.5860   -0.1470    1.0310 C   0  0  0  0  0  0  0  0  0  0  0  0
    4.7380   -0.0190    1.9870 C   0  0  2  0  0  0  0  0  0  0  0  0
    4.9850    1.6520    2.5190 Cl  0  0  0  0  0  0  0  0  0  0  0  0
    6.1840   -0.7510    1.3060 Cl  0  0  0  0  0  0  0  0  0  0  0  0
    3.5390    0.5030   -0.1640 C   0  0  0  0  0  0  0  0  0  0  0  0
    4.6800    1.3250   -0.5880 C   0  0  0  0  0  0  0  0  0  0  0  0
    4.7400    2.5030   -0.1730 O   0  0  0  0  0  0  0  0  0  0  0  0
    5.6960    0.8380   -1.4410 N   0  0  0  0  0  0  0  0  0  0  0  0
    6.8710    1.5220   -1.9270 C   0  0  0  0  0  0  0  0  0  0  0  0
    7.9550    0.4860   -1.6560 C   0  0  0  0  0  0  0  0  0  0  0  0
    7.2460   -0.8090   -2.0510 C   0  0  0  0  0  0  0  0  0  0  0  0
    5.7610   -0.4900   -2.0560 C   0  0  0  0  0  0  0  0  0  0  0  0
    2.4380    0.3570   -0.9680 C   0  0  0  0  0  0  0  0  0  0  0  0
   -2.1520    2.0910   -1.0470 C   0  0  0  0  0  0  0  0  0  0  0  0
   -2.3240    3.3430   -0.4910 C   0  0  0  0  0  0  0  0  0  0  0  0
   -2.8240    4.4200   -1.2180 C   0  0  0  0  0  0  0  0  0  0  0  0
  1  2  1  0
  2  3  2  0
  2 41  1  0
  3  4  1  0
  4  5  2  0
  5  6  1  0
  5 40  1  0
  6  7  2  0
  7  8  1  0
  8  9  1  0
  8 39  2  0
  9 10  1  0
 20  9  1  1
 11 10  1  6
 11 12  1  0
 11 19  1  0
 12 13  1  0
 13 14  1  0
 14 15  1  0
 15 16  1  6
 15 19  1  0
 16 17  1  0
 17 18  2  0
 20 21  2  0
 20 22  2  0
 20 23  1  0
 23 24  2  0
 23 38  1  0
 24 25  1  0
 25 26  2  0
 26 27  1  0
 26 30  1  0
 27 28  1  6
 27 29  1  0
 30 31  1  0
 30 38  2  0
 31 32  2  0
 31 33  1  0
 33 34  1  0
 33 37  1  0
 34 35  1  0
 35 36  1  0
 36 37  1  0
 39 40  1  0
 40 41  2  0
M  CHG  1  19   1
M  END
