
     RDKit          3D

 30 32  0  0  0  0  0  0  0  0999 V2000
   -6.1580   -1.8450   -1.5420 O   0  0  0  0  0  0  0  0  0  0  0  0
   -5.0270   -2.2450   -1.9150 C   0  0  0  0  0  0  0  0  0  0  0  0
   -4.9550   -3.2830   -2.8490 O   0  0  0  0  0  0  0  0  0  0  0  0
   -3.8270   -1.6780   -1.4190 N   0  0  0  0  0  0  0  0  0  0  0  0
   -3.1840   -2.2370   -0.4640 C   0  0  0  0  0  0  0  0  0  0  0  0
   -3.5950   -3.4110    0.1480 O   0  0  0  0  0  0  0  0  0  0  0  0
   -3.4730   -3.6410    1.5360 C   0  0  0  0  0  0  0  0  0  0  0  0
   -2.2690   -2.9860    2.1590 C   0  0  0  0  0  0  0  0  0  0  0  0
   -1.3720   -2.4410    1.1290 N   0  0  0  0  0  0  0  0  0  0  0  0
   -1.9110   -1.6590    0.0790 C   0  0  0  0  0  0  0  0  0  0  0  0
   -1.4590   -0.5480   -0.4110 C   0  0  0  0  0  0  0  0  0  0  0  0
   -0.2990    0.2180   -0.0980 C   0  0  0  0  0  0  0  0  0  0  0  0
   -0.1190    1.3590   -0.7460 N   0  0  0  0  0  0  0  0  0  0  0  0
   -1.0270    1.7680   -1.6780 O   0  0  0  0  0  0  0  0  0  0  0  0
   -2.0710    2.6290   -1.2230 C   0  0  0  0  0  0  0  0  0  0  0  0
   -2.9750    2.9750   -2.3880 C   0  0  2  0  0  0  0  0  0  0  0  0
   -2.3190    3.6730   -3.5240 C   0  0  0  0  0  0  0  0  0  0  0  0
   -3.2280    4.4570   -2.6020 C   0  0  0  0  0  0  0  0  0  0  0  0
    0.7730   -0.1330    0.8120 C   0  0  1  0  0  0  0  0  0  0  0  0
    1.7210   -1.2160    0.2800 C   0  0  0  0  0  0  0  0  0  0  0  0
    2.8080   -0.6580   -0.3460 O   0  0  0  0  0  0  0  0  0  0  0  0
    4.0070   -0.8580    0.3780 C   0  0  0  0  0  0  0  0  0  0  0  0
    3.8560   -0.1690    1.6830 C   0  0  1  0  0  0  0  0  0  0  0  0
    5.1360    0.1260    2.3980 C   0  0  0  0  0  0  0  0  0  0  0  0
    6.3070    1.1830    1.5250 P   0  0  0  0  0  0  0  0  0  0  0  0
    6.3280    2.8190    1.9130 O   0  0  0  0  0  0  0  0  0  0  0  0
    6.8990    0.6900    0.0550 O   0  0  0  0  0  0  0  0  0  0  0  0
    3.0100    1.0370    1.4890 C   0  0  0  0  0  0  0  0  0  0  0  0
    3.5290    2.1750    1.7230 O   0  0  0  0  0  0  0  0  0  0  0  0
    1.6530    1.0190    1.0590 N   0  0  0  0  0  0  0  0  0  0  0  0
  1  2  2  0
  2  3  1  0
  2  4  1  0
  4  5  2  3
  5  6  1  0
  5 10  1  0
  6  7  1  0
  7  8  1  0
  8  9  1  0
  9 10  1  0
 10 11  2  3
 11 12  1  0
 12 13  2  3
 19 12  1  6
 13 14  1  0
 14 15  1  0
 16 15  1  1
 16 17  1  0
 16 18  1  0
 17 18  1  0
 19 20  1  0
 19 30  1  0
 20 21  1  0
 21 22  1  0
 22 23  1  0
 23 24  1  6
 23 28  1  0
 24 25  1  0
 25 26  1  0
 25 27  1  0
 28 29  2  0
 28 30  1  0
M  END
