
     RDKit          3D

 31 33  0  0  0  0  0  0  0  0999 V2000
   -9.8490   -1.7180   -0.8550 N   0  0  0  0  0  0  0  0  0  0  0  0
   -8.7280   -1.6390    0.0180 C   0  0  0  0  0  0  0  0  0  0  0  0
   -8.8650   -2.0290    1.2220 O   0  0  0  0  0  0  0  0  0  0  0  0
   -7.4650   -1.1580   -0.3540 N   0  0  0  0  0  0  0  0  0  0  0  0
   -6.3610   -1.0910    0.5430 C   0  0  1  0  0  0  0  0  0  0  0  0
   -5.0260   -1.5970   -0.0190 C   0  0  0  0  0  0  0  0  0  0  0  0
   -4.4050   -0.5130    0.7010 N   0  0  0  0  0  0  0  0  0  0  0  0
   -3.1630   -0.3040    1.3340 C   0  0  0  0  0  0  0  0  0  0  0  0
   -2.2860   -1.2240    1.3430 O   0  0  0  0  0  0  0  0  0  0  0  0
   -2.8130    0.8720    1.9720 O   0  0  0  0  0  0  0  0  0  0  0  0
   -1.5670    1.0730    2.6040 C   0  0  0  0  0  0  0  0  0  0  0  0
   -0.4690    0.9540    1.7600 O   0  0  0  0  0  0  0  0  0  0  0  0
   -0.2120    1.7080    0.6490 C   0  0  0  0  0  0  0  0  0  0  0  0
   -1.0340    2.6060    0.3350 O   0  0  0  0  0  0  0  0  0  0  0  0
    0.9810    1.5370   -0.2210 C   0  0  2  0  0  0  0  0  0  0  0  0
    1.0140    0.1320   -0.8260 C   0  0  0  0  0  0  0  0  0  0  0  0
    2.5230   -0.1080   -0.9790 C   0  0  0  0  0  0  0  0  0  0  0  0
    3.1630    0.7750   -0.0940 N   0  0  0  0  0  0  0  0  0  0  0  0
    4.5490    0.9910    0.1000 C   0  0  0  0  0  0  0  0  0  0  0  0
    4.8170    1.9070    0.9920 O   0  0  0  0  0  0  0  0  0  0  0  0
    5.6880    0.3880   -0.5030 C   0  0  0  0  0  0  0  0  0  0  0  0
    6.9140    0.7970   -0.1310 C   0  0  0  0  0  0  0  0  0  0  0  0
    8.1570    0.2540   -0.6770 C   0  0  1  0  0  0  0  0  0  0  0  0
    8.8920    1.2790   -1.3010 O   0  0  0  0  0  0  0  0  0  0  0  0
    9.1320   -0.4120    0.7870 P   0  0  0  0  0  0  0  0  0  0  0  0
    8.3690   -1.3780    1.7350 O   0  0  0  0  0  0  0  0  0  0  0  0
    7.9850   -0.7560   -1.6290 O   0  0  0  0  0  0  0  0  0  0  0  0
    6.7480   -1.1950   -2.0280 C   0  0  0  0  0  0  0  0  0  0  0  0
    5.6330   -0.6570   -1.4980 C   0  0  0  0  0  0  0  0  0  0  0  0
    2.1860    1.5150    0.6910 C   0  0  0  0  0  0  0  0  0  0  0  0
   -5.6120    0.2490    0.4840 C   0  0  0  0  0  0  0  0  0  0  0  0
  1  2  1  0
  2  3  2  0
  2  4  1  0
  5  4  1  6
  5  6  1  0
  5 31  1  0
  6  7  1  0
  7  8  1  0
  7 31  1  0
  8  9  2  0
  8 10  1  0
 10 11  1  0
 11 12  1  0
 12 13  1  0
 13 14  2  0
 15 13  1  1
 15 16  1  0
 15 30  1  0
 16 17  1  0
 17 18  1  0
 18 19  1  0
 18 30  1  0
 19 20  2  0
 19 21  1  0
 21 22  2  0
 21 29  1  0
 22 23  1  0
 23 24  1  6
 23 25  1  0
 23 27  1  0
 25 26  2  0
 27 28  1  0
 28 29  2  0
M  END
