
     RDKit          3D

 31 33  0  0  0  0  0  0  0  0999 V2000
   -0.1890   -1.7060    0.4850 O   0  0  0  0  0  0  0  0  0  0  0  0
   -0.7070   -0.9380   -0.3530 C   0  0  0  0  0  0  0  0  0  0  0  0
   -0.7840   -1.3600   -1.6810 N   0  0  0  0  0  0  0  0  0  0  0  0
   -0.3530   -2.5970   -2.2620 C   0  0  0  0  0  0  0  0  0  0  0  0
   -1.1290   -3.7450   -1.6790 C   0  0  0  0  0  0  0  0  0  0  0  0
   -1.0140   -3.9170   -0.3250 O   0  0  0  0  0  0  0  0  0  0  0  0
   -1.2220    0.3800    0.0650 C   0  0  0  0  0  0  0  0  0  0  0  0
   -1.1140    0.7480    1.3440 C   0  0  0  0  0  0  0  0  0  0  0  0
   -0.5530    0.0020    2.3340 N   0  0  0  0  0  0  0  0  0  0  0  0
    0.5830   -0.3130    2.7650 C   0  0  0  0  0  0  0  0  0  0  0  0
    0.6310   -1.1510    3.8680 N   0  0  0  0  0  0  0  0  0  0  0  0
    1.7750   -1.5480    4.3890 C   0  0  0  0  0  0  0  0  0  0  0  0
    2.9320   -1.1250    3.8300 N   0  0  0  0  0  0  0  0  0  0  0  0
    2.9550   -0.3290    2.7820 C   0  0  0  0  0  0  0  0  0  0  0  0
    1.7500    0.1090    2.2070 C   0  0  0  0  0  0  0  0  0  0  0  0
    1.8340    1.0370    1.0960 C   0  0  0  0  0  0  0  0  0  0  0  0
    1.2710    2.1530    1.0880 O   0  0  0  0  0  0  0  0  0  0  0  0
    2.6160    0.6570   -0.0880 C   0  0  0  0  0  0  0  0  0  0  0  0
    3.2050   -0.5010   -0.2010 C   0  0  0  0  0  0  0  0  0  0  0  0
    3.9940   -0.8910   -1.3840 C   0  0  0  0  0  0  0  0  0  0  0  0
    4.0470    0.1000   -2.3630 O   0  0  0  0  0  0  0  0  0  0  0  0
    3.4210    1.3310   -2.2450 C   0  0  0  0  0  0  0  0  0  0  0  0
    2.7260    1.6370   -1.1720 C   0  0  0  0  0  0  0  0  0  0  0  0
   -1.6460    2.0270    1.6360 O   0  0  0  0  0  0  0  0  0  0  0  0
   -2.5580    2.7250    0.8690 C   0  0  0  0  0  0  0  0  0  0  0  0
   -2.9720    2.0260   -0.4100 C   0  0  1  0  0  0  0  0  0  0  0  0
   -3.2450    2.8740   -1.4550 O   0  0  0  0  0  0  0  0  0  0  0  0
   -4.8130    2.6120   -2.1420 P   0  0  0  0  0  0  0  0  0  0  0  0
   -5.8110    1.6180   -1.1310 O   0  0  0  0  0  0  0  0  0  0  0  0
   -5.5290    4.1460   -2.4580 O   0  0  0  0  0  0  0  0  0  0  0  0
   -1.8140    1.2590   -0.8010 O   0  0  0  0  0  0  0  0  0  0  0  0
  1  2  2  0
  2  3  1  0
  2  7  1  0
  3  4  1  0
  4  5  1  0
  5  6  1  0
  7  8  2  0
  7 31  1  0
  8  9  1  0
  8 24  1  0
  9 10  2  3
 10 11  1  0
 10 15  1  0
 11 12  2  0
 12 13  1  0
 13 14  1  0
 14 15  2  0
 15 16  1  0
 16 17  2  0
 16 18  1  0
 18 19  2  0
 18 23  1  0
 19 20  1  0
 20 21  1  0
 21 22  1  0
 22 23  2  0
 24 25  1  0
 25 26  1  0
 26 27  1  6
 26 31  1  0
 27 28  1  0
 28 29  1  0
 28 30  1  0
M  END
