
     RDKit          3D

 30 32  0  0  0  0  0  0  0  0999 V2000
    0.0260   -5.0040    0.2270 C   0  0  0  0  0  0  0  0  0  0  0  0
    0.0650   -3.6980   -0.3030 O   0  0  0  0  0  0  0  0  0  0  0  0
   -0.5570   -2.6350    0.3370 C   0  0  0  0  0  0  0  0  0  0  0  0
   -1.1590   -2.8800    1.4120 O   0  0  0  0  0  0  0  0  0  0  0  0
   -0.4720   -1.3020   -0.2780 C   0  0  2  0  0  0  0  0  0  0  0  0
    0.9660   -0.9110   -0.3900 C   0  0  0  0  0  0  0  0  0  0  0  0
    1.5220    0.2740   -0.0760 N   0  0  0  0  0  0  0  0  0  0  0  0
    2.8420    0.2120   -0.3240 C   0  0  0  0  0  0  0  0  0  0  0  0
    3.8260    1.2880   -0.1180 C   0  0  0  0  0  0  0  0  0  0  0  0
    3.4340    2.5110    0.3780 C   0  0  0  0  0  0  0  0  0  0  0  0
    4.3840    3.5140    0.5670 C   0  0  0  0  0  0  0  0  0  0  0  0
    5.7110    3.2830    0.2580 C   0  0  0  0  0  0  0  0  0  0  0  0
    6.6270    4.3150    0.4630 O   0  0  0  0  0  0  0  0  0  0  0  0
    6.0570    2.0470   -0.2340 C   0  0  0  0  0  0  0  0  0  0  0  0
    5.1020    1.0910   -0.4050 N   0  0  0  0  0  0  0  0  0  0  0  0
    3.0610   -1.0250   -0.7890 N   0  0  0  0  0  0  0  0  0  0  0  0
    1.9420   -1.6660   -0.8180 O   0  0  0  0  0  0  0  0  0  0  0  0
   -1.2680   -0.2640    0.4930 C   0  0  0  0  0  0  0  0  0  0  0  0
   -2.1750    0.3600   -0.4030 N   0  0  0  0  0  0  0  0  0  0  0  0
   -2.4710    1.7310   -0.2040 C   0  0  0  0  0  0  0  0  0  0  0  0
   -3.2720    1.9310    1.0560 C   0  0  1  0  0  0  0  0  0  0  0  0
   -4.4700    1.2040    1.0170 O   0  0  0  0  0  0  0  0  0  0  0  0
   -2.3710    1.4650    2.5980 P   0  0  0  0  0  0  0  0  0  0  0  0
   -1.9410    2.9160    3.4400 O   0  0  0  0  0  0  0  0  0  0  0  0
   -3.3920    0.5040    3.6200 O   0  0  0  0  0  0  0  0  0  0  0  0
   -1.6430    0.0920   -1.7380 C   0  0  0  0  0  0  0  0  0  0  0  0
   -1.1910   -1.3400   -1.5880 C   0  0  1  0  0  0  0  0  0  0  0  0
   -0.3160   -1.7840   -2.7330 C   0  0  0  0  0  0  0  0  0  0  0  0
   -2.4230   -2.1990   -1.4490 C   0  0  0  0  0  0  0  0  0  0  0  0
   -3.2390   -1.6370   -0.4670 O   0  0  0  0  0  0  0  0  0  0  0  0
  1  2  1  0
  2  3  1  0
  3  4  2  0
  5  3  1  1
  5  6  1  0
  5 18  1  0
  5 27  1  0
  6  7  2  0
  6 17  1  0
  7  8  1  0
  8  9  1  0
  8 16  2  0
  9 10  2  0
  9 15  1  0
 10 11  1  0
 11 12  2  0
 12 13  1  0
 12 14  1  0
 14 15  2  0
 16 17  1  0
 18 19  1  0
 19 20  1  0
 19 26  1  0
 20 21  1  0
 21 22  1  6
 21 23  1  0
 23 24  1  0
 23 25  1  0
 26 27  1  0
 27 28  1  6
 27 29  1  0
 29 30  1  0
M  END
