
     RDKit          3D

 31 33  0  0  0  0  0  0  0  0999 V2000
   -5.3850   -0.5550   -4.2040 O   0  0  0  0  0  0  0  0  0  0  0  0
   -4.4240    0.0250   -4.7590 C   0  0  0  0  0  0  0  0  0  0  0  0
   -3.3070    0.5480   -4.0050 C   0  0  0  0  0  0  0  0  0  0  0  0
   -3.3180    0.3970   -2.6620 C   0  0  0  0  0  0  0  0  0  0  0  0
   -2.2350    0.8970   -1.8580 C   0  0  0  0  0  0  0  0  0  0  0  0
   -2.0860    0.8270   -0.5720 C   0  0  0  0  0  0  0  0  0  0  0  0
   -2.9580    0.2220    0.4360 C   0  0  0  0  0  0  0  0  0  0  0  0
   -3.7180   -0.8470    0.3110 C   0  0  0  0  0  0  0  0  0  0  0  0
   -4.5500   -1.3550    1.3850 C   0  0  0  0  0  0  0  0  0  0  0  0
   -4.6740   -0.8700    2.5720 N   0  0  0  0  0  0  0  0  0  0  0  0
   -5.5530   -1.6190    3.3160 O   0  0  0  0  0  0  0  0  0  0  0  0
   -6.3030   -2.3600    2.3610 C   0  0  0  0  0  0  0  0  0  0  0  0
   -5.3740   -2.4840    1.3060 O   0  0  0  0  0  0  0  0  0  0  0  0
   -2.7690    0.9890    1.6480 N   0  0  0  0  0  0  0  0  0  0  0  0
   -1.7990    2.0210    1.3710 C   0  0  0  0  0  0  0  0  0  0  0  0
   -1.6490    3.1230    1.9010 O   0  0  0  0  0  0  0  0  0  0  0  0
   -0.9890    1.4380    0.2590 C   0  0  1  0  0  0  0  0  0  0  0  0
   -0.0230    0.4140    0.7860 C   0  0  0  0  0  0  0  0  0  0  0  0
    1.1220    1.2420    1.1370 N   0  0  0  0  0  0  0  0  0  0  0  0
    2.0810    0.9170    2.1400 C   0  0  0  0  0  0  0  0  0  0  0  0
    3.2290    0.1420    1.6520 C   0  0  0  0  0  0  0  0  0  0  0  0
    4.1160   -0.1800    2.4820 O   0  0  0  0  0  0  0  0  0  0  0  0
    3.4130   -0.2710    0.3060 N   0  0  0  0  0  0  0  0  0  0  0  0
    4.5480   -1.0290   -0.1510 C   0  0  0  0  0  0  0  0  0  0  0  0
    5.8680   -0.3370    0.0560 C   0  0  0  0  0  0  0  0  0  0  0  0
    7.2590   -1.4150   -0.5760 P   0  0  0  0  0  0  0  0  0  0  0  0
    8.7820   -0.7030   -0.1820 O   0  0  0  0  0  0  0  0  0  0  0  0
    7.0660   -1.5330   -2.3050 O   0  0  0  0  0  0  0  0  0  0  0  0
    1.0340    2.3740    0.2780 C   0  0  0  0  0  0  0  0  0  0  0  0
    1.9310    3.2600    0.1710 O   0  0  0  0  0  0  0  0  0  0  0  0
   -0.1920    2.3390   -0.4160 O   0  0  0  0  0  0  0  0  0  0  0  0
  1  2  2  0
  2  3  1  0
  3  4  2  3
  4  5  1  0
  5  6  2  3
  6  7  1  0
  6 17  1  0
  7  8  2  3
  7 14  1  0
  8  9  1  0
  9 10  2  0
  9 13  1  0
 10 11  1  0
 11 12  1  0
 12 13  1  0
 14 15  1  0
 15 16  2  0
 15 17  1  0
 17 18  1  1
 17 31  1  0
 18 19  1  0
 19 20  1  0
 19 29  1  0
 20 21  1  0
 21 22  2  0
 21 23  1  0
 23 24  1  0
 24 25  1  0
 25 26  1  0
 26 27  1  0
 26 28  1  0
 29 30  2  0
 29 31  1  0
M  END
