
     RDKit          3D

 30 32  0  0  0  0  0  0  0  0999 V2000
   -6.2690    1.0710    2.3150 O   0  0  0  0  0  0  0  0  0  0  0  0
   -5.1150    1.1310    1.8020 C   0  0  0  0  0  0  0  0  0  0  0  0
   -4.0960    1.9800    2.3130 N   0  0  0  0  0  0  0  0  0  0  0  0
   -2.7130    1.6380    2.0610 C   0  0  0  0  0  0  0  0  0  0  0  0
   -1.8040    2.3530    2.4850 O   0  0  0  0  0  0  0  0  0  0  0  0
   -2.5440    0.3820    1.2700 C   0  0  2  0  0  0  0  0  0  0  0  0
   -1.1730    0.0920    0.8710 C   0  0  0  0  0  0  0  0  0  0  0  0
   -0.2570    0.7650    1.4360 O   0  0  0  0  0  0  0  0  0  0  0  0
   -0.8170   -0.8660   -0.0750 N   0  0  0  0  0  0  0  0  0  0  0  0
   -1.8040   -1.7380   -0.7370 C   0  0  0  0  0  0  0  0  0  0  0  0
   -1.2770   -3.1730   -0.5950 C   0  0  0  0  0  0  0  0  0  0  0  0
   -0.2910   -3.2130    0.3810 O   0  0  0  0  0  0  0  0  0  0  0  0
    0.8370   -2.5720   -0.1660 C   0  0  0  0  0  0  0  0  0  0  0  0
    0.5430   -1.1180   -0.5170 C   0  0  1  0  0  0  0  0  0  0  0  0
    0.6640   -0.8910   -2.0110 C   0  0  0  0  0  0  0  0  0  0  0  0
    0.3410    0.4060   -2.3450 O   0  0  0  0  0  0  0  0  0  0  0  0
    1.5830   -0.2830    0.1470 C   0  0  0  0  0  0  0  0  0  0  0  0
    2.8660   -0.6930   -0.4410 N   0  0  0  0  0  0  0  0  0  0  0  0
    3.9810    0.0230    0.0890 C   0  0  0  0  0  0  0  0  0  0  0  0
    4.0350    1.4660   -0.2810 C   0  0  0  0  0  0  0  0  0  0  0  0
    5.2890    2.0630    0.3730 C   0  0  0  0  0  0  0  0  0  0  0  0
    6.8110    1.1970   -0.2220 P   0  0  0  0  0  0  0  0  0  0  0  0
    8.1610    2.2930   -0.0270 O   0  0  0  0  0  0  0  0  0  0  0  0
    7.1760   -0.1830    0.8020 O   0  0  0  0  0  0  0  0  0  0  0  0
   -3.5050    0.4900    0.1910 N   0  0  0  0  0  0  0  0  0  0  0  0
   -3.4890    0.8120   -1.1780 C   0  0  0  0  0  0  0  0  0  0  0  0
   -2.5340    1.3710   -1.7580 O   0  0  0  0  0  0  0  0  0  0  0  0
   -4.7950    0.3610   -1.7390 C   0  0  0  0  0  0  0  0  0  0  0  0
   -5.7430    0.6400   -0.5680 C   0  0  0  0  0  0  0  0  0  0  0  0
   -4.9010    0.2350    0.6070 C   0  0  2  0  0  0  0  0  0  0  0  0
  1  2  2  0
  2  3  1  0
  2 30  1  0
  3  4  1  0
  4  5  2  0
  4  6  1  0
  6  7  1  6
  6 25  1  0
  7  8  2  0
  7  9  1  0
  9 10  1  0
  9 14  1  0
 10 11  1  0
 11 12  1  0
 12 13  1  0
 13 14  1  0
 14 15  1  6
 14 17  1  0
 15 16  1  0
 17 18  1  0
 18 19  1  0
 19 20  1  0
 20 21  1  0
 21 22  1  0
 22 23  1  0
 22 24  1  0
 25 26  1  0
 25 30  1  0
 26 27  2  0
 26 28  1  0
 28 29  1  0
 30 29  1  6
M  END
