
     RDKit          3D

 31 33  0  0  0  0  0  0  0  0999 V2000
    6.9310    0.8950    0.3610 O   0  0  0  0  0  0  0  0  0  0  0  0
    6.3420    0.0880    1.1300 C   0  0  0  0  0  0  0  0  0  0  0  0
    7.1100   -0.5430    2.0870 O   0  0  0  0  0  0  0  0  0  0  0  0
    4.9240   -0.1790    1.0300 C   0  0  0  0  0  0  0  0  0  0  0  0
    4.3270   -1.0690    1.8920 C   0  0  0  0  0  0  0  0  0  0  0  0
    2.9930   -1.3550    1.8400 C   0  0  0  0  0  0  0  0  0  0  0  0
    2.1610   -0.7590    0.9040 C   0  0  0  0  0  0  0  0  0  0  0  0
    0.7910   -1.0730    0.8580 N   0  0  0  0  0  0  0  0  0  0  0  0
   -0.2210   -0.4710    0.0850 C   0  0  0  0  0  0  0  0  0  0  0  0
    0.0630    0.4710   -0.6780 O   0  0  0  0  0  0  0  0  0  0  0  0
   -1.6510   -0.9570    0.1710 C   0  0  2  0  0  0  0  0  0  0  0  0
   -1.7160   -2.4270   -0.1970 C   0  0  0  0  0  0  0  0  0  0  0  0
   -1.2170   -2.6760   -1.6060 C   0  0  0  0  0  0  0  0  0  0  0  0
   -1.3470   -4.5020   -1.9300 P   0  0  0  0  0  0  0  0  0  0  0  0
   -2.9500   -5.0880   -1.6410 O   0  0  0  0  0  0  0  0  0  0  0  0
   -0.9710   -4.8340   -3.6050 O   0  0  0  0  0  0  0  0  0  0  0  0
   -2.4670   -0.1590   -0.7270 N   0  0  0  0  0  0  0  0  0  0  0  0
   -2.6130    1.2320   -0.6200 C   0  0  0  0  0  0  0  0  0  0  0  0
   -2.3610    1.8870    0.4660 N   0  0  0  0  0  0  0  0  0  0  0  0
   -2.6090    3.2880    0.2440 C   0  0  0  0  0  0  0  0  0  0  0  0
   -2.5010    4.3760    1.0450 N   0  0  0  0  0  0  0  0  0  0  0  0
   -2.8000    5.6060    0.5910 C   0  0  0  0  0  0  0  0  0  0  0  0
   -2.6860    6.6080    1.3750 O   0  0  0  0  0  0  0  0  0  0  0  0
   -3.2030    5.7700   -0.6470 O   0  0  0  0  0  0  0  0  0  0  0  0
   -3.3320    4.7650   -1.4800 C   0  0  0  0  0  0  0  0  0  0  0  0
   -3.7180    4.9060   -2.6700 O   0  0  0  0  0  0  0  0  0  0  0  0
   -3.0360    3.4930   -1.0510 C   0  0  0  0  0  0  0  0  0  0  0  0
   -3.0570    2.1640   -1.6700 C   0  0  0  0  0  0  0  0  0  0  0  0
   -3.3860    1.9090   -2.8390 O   0  0  0  0  0  0  0  0  0  0  0  0
    2.7380    0.1240    0.0430 C   0  0  0  0  0  0  0  0  0  0  0  0
    4.1170    0.4200    0.0980 C   0  0  0  0  0  0  0  0  0  0  0  0
  1  2  2  0
  2  3  1  0
  2  4  1  0
  4  5  2  0
  4 31  1  0
  5  6  1  0
  6  7  2  0
  7  8  1  0
  7 30  1  0
  8  9  1  0
  9 10  2  0
  9 11  1  0
 11 12  1  6
 11 17  1  0
 12 13  1  0
 13 14  1  0
 14 15  1  0
 14 16  1  0
 17 18  1  0
 18 19  2  0
 18 28  1  0
 19 20  1  0
 20 21  1  0
 20 27  2  0
 21 22  1  0
 22 23  2  0
 22 24  1  0
 24 25  1  0
 25 26  2  0
 25 27  1  0
 27 28  1  0
 28 29  2  0
 30 31  2  0
M  END
