
     RDKit          3D

 13 14  0  0  0  0  0  0  0  0999 V2000
    4.9520    0.0650   -0.2060 O   0  0  0  0  0  0  0  0  0  0  0  0
    4.0360   -0.5370   -0.9310 O   0  0  0  0  0  0  0  0  0  0  0  0
    2.9350    0.1790   -0.8510 O   0  0  0  0  0  0  0  0  0  0  0  0
    2.2880   -0.1480    0.3460 C   0  0  0  0  0  0  0  0  0  0  0  0
    0.9960    0.6600    0.4890 C   0  0  2  0  0  0  0  0  0  0  0  0
    0.4230    0.2750    1.6950 O   0  0  0  0  0  0  0  0  0  0  0  0
   -0.4350   -0.7520    1.3040 C   0  0  0  0  0  0  0  0  0  0  0  0
   -1.0610   -0.0870    0.0770 C   0  0  2  0  0  0  0  0  0  0  0  0
   -1.8680    0.9480    0.4620 O   0  0  0  0  0  0  0  0  0  0  0  0
   -3.0910    0.8230   -0.1600 C   0  0  0  0  0  0  0  0  0  0  0  0
   -3.1080   -0.6100   -0.6420 C   0  0  0  0  0  0  0  0  0  0  0  0
   -1.7520   -0.9580   -0.7050 O   0  0  0  0  0  0  0  0  0  0  0  0
    0.1160    0.4000   -0.5280 O   0  0  0  0  0  0  0  0  0  0  0  0
  1  2  1  0
  2  3  1  0
  3  4  1  0
  5  4  1  6
  5  6  1  0
  5 13  1  0
  6  7  1  0
  8  7  1  1
  8  9  1  0
  8 12  1  0
  8 13  1  0
  9 10  1  0
 10 11  1  0
 11 12  1  0
M  END
