
     RDKit          3D

 13 13  0  0  0  0  0  0  0  0999 V2000
   -3.6050   -1.7840    1.7100 O   0  0  0  0  0  0  0  0  0  0  0  0
   -2.8000   -0.9630    1.2670 C   0  0  0  0  0  0  0  0  0  0  0  0
   -3.2760    0.1540    0.3450 C   0  0  0  0  0  0  0  0  0  0  0  0
   -2.3290    1.1690    0.4840 O   0  0  0  0  0  0  0  0  0  0  0  0
   -1.1820    0.7230   -0.2310 C   0  0  0  0  0  0  0  0  0  0  0  0
   -0.6150   -0.5020    0.3390 C   0  0  1  0  0  0  0  0  0  0  0  0
   -0.5990   -1.6000   -0.4970 O   0  0  0  0  0  0  0  0  0  0  0  0
    0.6800   -0.2860    0.8650 O   0  0  0  0  0  0  0  0  0  0  0  0
    1.5770   -0.2580   -0.1370 C   0  0  0  0  0  0  0  0  0  0  0  0
    2.4410    0.9420   -0.3610 C   0  0  0  0  0  0  0  0  0  0  0  0
    3.1350    1.0890    0.8490 O   0  0  0  0  0  0  0  0  0  0  0  0
    4.4230    0.8260    0.5860 O   0  0  0  0  0  0  0  0  0  0  0  0
   -1.4270   -0.9560    1.4800 O   0  0  0  0  0  0  0  0  0  0  0  0
  1  2  2  0
  2  3  1  0
  2 13  1  0
  3  4  1  0
  4  5  1  0
  5  6  1  0
  6  7  1  6
  6  8  1  0
  6 13  1  0
  8  9  1  0
  9 10  1  0
 10 11  1  0
 11 12  1  0
M  END
