
     RDKit          3D

 13 13  0  0  0  0  0  0  0  0999 V2000
    1.8690    1.4440   -1.0810 O   0  0  0  0  0  0  0  0  0  0  0  0
    1.7110    0.7340   -0.1110 C   0  0  0  0  0  0  0  0  0  0  0  0
    2.8740    0.5100    0.8740 C   0  0  0  0  0  0  0  0  0  0  0  0
    3.7220   -0.0250   -0.2020 O   0  0  0  0  0  0  0  0  0  0  0  0
    3.9820   -1.1980    0.0580 O   0  0  0  0  0  0  0  0  0  0  0  0
    0.5890    0.0210    0.2800 O   0  0  0  0  0  0  0  0  0  0  0  0
   -0.4680   -0.1310   -0.5810 C   0  0  1  0  0  0  0  0  0  0  0  0
   -1.1990   -1.2510   -0.3750 O   0  0  0  0  0  0  0  0  0  0  0  0
   -2.5750   -0.9930   -0.5510 C   0  0  0  0  0  0  0  0  0  0  0  0
   -3.0950   -0.1500    0.5850 C   0  0  0  0  0  0  0  0  0  0  0  0
   -2.3580    1.0960    0.5740 O   0  0  0  0  0  0  0  0  0  0  0  0
   -1.3070    1.1050   -0.2810 C   0  0  0  0  0  0  0  0  0  0  0  0
   -0.9430    2.1790   -0.9270 O   0  0  0  0  0  0  0  0  0  0  0  0
  1  2  2  0
  2  3  1  0
  2  6  1  0
  3  4  1  0
  4  5  1  0
  7  6  1  1
  7  8  1  0
  7 12  1  0
  8  9  1  0
  9 10  1  0
 10 11  1  0
 11 12  1  0
 12 13  2  0
M  END
