
     RDKit          3D

 13 13  0  0  0  0  0  0  0  0999 V2000
   -0.4680    0.7680    0.9610 C   0  0  0  0  0  0  0  0  0  0  0  0
   -1.0520    0.0720   -0.2130 C   0  0  1  0  0  0  0  0  0  0  0  0
   -0.3560    0.0290   -1.3700 O   0  0  0  0  0  0  0  0  0  0  0  0
    0.6650   -0.8310   -1.5120 C   0  0  0  0  0  0  0  0  0  0  0  0
    1.8440   -0.6420   -0.6180 C   0  0  0  0  0  0  0  0  0  0  0  0
    2.4390    0.6090   -0.7960 O   0  0  0  0  0  0  0  0  0  0  0  0
    3.4600    0.6850    0.0250 O   0  0  0  0  0  0  0  0  0  0  0  0
    3.6140   -0.4220    0.7200 O   0  0  0  0  0  0  0  0  0  0  0  0
   -1.6510   -1.1530    0.1140 O   0  0  0  0  0  0  0  0  0  0  0  0
   -2.7710   -0.8830    0.8530 C   0  0  0  0  0  0  0  0  0  0  0  0
   -3.1700    0.4560    0.5330 O   0  0  0  0  0  0  0  0  0  0  0  0
   -2.3500    0.8420   -0.5170 C   0  0  0  0  0  0  0  0  0  0  0  0
   -2.5500    1.6110   -1.4890 O   0  0  0  0  0  0  0  0  0  0  0  0
  2  1  1  1
  2  3  1  0
  2  9  1  0
  2 12  1  0
  3  4  1  0
  4  5  1  0
  5  6  1  0
  6  7  1  0
  7  8  1  0
  9 10  1  0
 10 11  1  0
 11 12  1  0
 12 13  2  0
M  END
