
     RDKit          3D

 13 13  0  0  0  0  0  0  0  0999 V2000
    3.0700    0.4440   -0.9420 O   0  0  0  0  0  0  0  0  0  0  0  0
    2.9970    0.8090    0.2520 C   0  0  0  0  0  0  0  0  0  0  0  0
    3.5500    2.0500    0.5710 O   0  0  0  0  0  0  0  0  0  0  0  0
    2.3910   -0.0070    1.1760 O   0  0  0  0  0  0  0  0  0  0  0  0
    1.8210   -1.2680    0.8860 C   0  0  0  0  0  0  0  0  0  0  0  0
    0.7160   -1.1480   -0.1140 C   0  0  0  0  0  0  0  0  0  0  0  0
   -0.3130   -0.3220    0.3450 O   0  0  0  0  0  0  0  0  0  0  0  0
   -1.2870   -0.2780   -0.6570 C   0  0  1  0  0  0  0  0  0  0  0  0
   -2.5620   -0.8370   -0.1230 C   0  0  0  0  0  0  0  0  0  0  0  0
   -3.4070    0.0810    0.4450 O   0  0  0  0  0  0  0  0  0  0  0  0
   -3.3790    1.2590   -0.1360 O   0  0  0  0  0  0  0  0  0  0  0  0
   -2.0880    1.7750   -0.1850 C   0  0  0  0  0  0  0  0  0  0  0  0
   -1.3680    1.0250   -1.0960 O   0  0  0  0  0  0  0  0  0  0  0  0
  1  2  2  0
  2  3  1  0
  2  4  1  0
  4  5  1  0
  5  6  1  0
  6  7  1  0
  8  7  1  1
  8  9  1  0
  8 13  1  0
  9 10  1  0
 10 11  1  0
 11 12  1  0
 12 13  1  0
M  END
