
     RDKit          3D

 13 13  0  0  0  0  0  0  0  0999 V2000
    4.3280    1.5720   -0.8540 O   0  0  0  0  0  0  0  0  0  0  0  0
    3.1140    1.4610   -0.3320 O   0  0  0  0  0  0  0  0  0  0  0  0
    3.1560    0.9080    0.8680 O   0  0  0  0  0  0  0  0  0  0  0  0
    2.2050    0.0500    1.0610 O   0  0  0  0  0  0  0  0  0  0  0  0
    2.0130   -0.7980   -0.0310 C   0  0  0  0  0  0  0  0  0  0  0  0
    0.9010   -1.7800    0.2330 C   0  0  0  0  0  0  0  0  0  0  0  0
   -0.3000   -1.1830    0.4790 O   0  0  0  0  0  0  0  0  0  0  0  0
   -0.7950   -0.4110   -0.5610 C   0  0  2  0  0  0  0  0  0  0  0  0
   -0.8520    1.0080   -0.0680 C   0  0  0  0  0  0  0  0  0  0  0  0
   -1.9170    1.6320   -0.6880 O   0  0  0  0  0  0  0  0  0  0  0  0
   -3.0750    1.0970   -0.1240 C   0  0  0  0  0  0  0  0  0  0  0  0
   -3.0990   -0.3790   -0.2720 C   0  0  0  0  0  0  0  0  0  0  0  0
   -2.0160   -0.9300   -0.9130 O   0  0  0  0  0  0  0  0  0  0  0  0
  1  2  1  0
  2  3  1  0
  3  4  1  0
  4  5  1  0
  5  6  1  0
  6  7  1  0
  8  7  1  1
  8  9  1  0
  8 13  1  0
  9 10  1  0
 10 11  1  0
 11 12  1  0
 12 13  1  0
M  END
