
     RDKit          3D

 37 38  0  0  0  0  0  0  0  0999 V2000
    7.6790    3.9640    0.5010 C   0  0  0  0  0  0  0  0  0  0  0  0
    7.1110    2.7300    0.7700 O   0  0  0  0  0  0  0  0  0  0  0  0
    7.6180    1.5450    0.1210 C   0  0  0  0  0  0  0  0  0  0  0  0
    8.5220    1.5430   -0.6430 O   0  0  0  0  0  0  0  0  0  0  0  0
    6.8260    0.3330    0.5290 C   0  0  1  0  0  0  0  0  0  0  0  0
    7.7080   -0.8360    0.8480 C   0  0  0  0  0  0  0  0  0  0  0  0
    6.2130    0.6480    1.7940 O   0  0  0  0  0  0  0  0  0  0  0  0
    5.7250   -0.0480   -0.3650 C   0  0  0  0  0  0  0  0  0  0  0  0
    4.6130    0.9610   -0.6180 C   0  0  0  0  0  0  0  0  0  0  0  0
    3.6530    0.4090   -1.5850 C   0  0  0  0  0  0  0  0  0  0  0  0
    4.0920   -0.1460   -2.6700 O   0  0  0  0  0  0  0  0  0  0  0  0
    2.2150    0.3540   -1.4630 N   0  0  0  0  0  0  0  0  0  0  0  0
    1.5090   -0.3650   -2.4730 C   0  0  0  0  0  0  0  0  0  0  0  0
    0.1160   -0.8320   -2.0710 C   0  0  0  0  0  0  0  0  0  0  0  0
   -0.4950   -1.4450   -2.9550 O   0  0  0  0  0  0  0  0  0  0  0  0
   -0.3980   -0.6270   -0.8000 N   0  0  0  0  0  0  0  0  0  0  0  0
   -1.5450   -1.3320   -0.3070 C   0  0  0  0  0  0  0  0  0  0  0  0
   -1.6840   -2.6840   -0.7390 C   0  0  0  0  0  0  0  0  0  0  0  0
   -2.3760   -3.5780   -0.0200 C   0  0  0  0  0  0  0  0  0  0  0  0
   -2.4700   -4.9380   -0.5230 O   0  0  0  0  0  0  0  0  0  0  0  0
   -3.3760   -5.7650    0.2610 C   0  0  0  0  0  0  0  0  0  0  0  0
   -4.8010   -5.4750    0.0180 C   0  0  0  0  0  0  0  0  0  0  0  0
   -5.3870   -4.2770    0.1410 O   0  0  0  0  0  0  0  0  0  0  0  0
   -3.0020   -3.2810    1.1920 C   0  0  0  0  0  0  0  0  0  0  0  0
   -2.8840   -1.9870    1.6040 C   0  0  0  0  0  0  0  0  0  0  0  0
   -2.1940   -1.0050    0.8870 C   0  0  0  0  0  0  0  0  0  0  0  0
   -2.1640    0.2930    1.2490 O   0  0  0  0  0  0  0  0  0  0  0  0
   -2.2590    1.4300    1.7200 C   0  0  0  0  0  0  0  0  0  0  0  0
   -3.3300    2.3480    1.1440 C   0  0  0  0  0  0  0  0  0  0  0  0
   -3.0890    3.4930    0.6320 O   0  0  0  0  0  0  0  0  0  0  0  0
   -4.1780    4.1110    0.2580 C   0  0  0  0  0  0  0  0  0  0  0  0
   -4.2720    5.4910   -0.4220 C   0  0  0  0  0  0  0  0  0  0  0  0
   -5.2410    3.2920    0.5620 C   0  0  0  0  0  0  0  0  0  0  0  0
   -4.6690    2.1000    1.1440 C   0  0  0  0  0  0  0  0  0  0  0  0
   -5.5220    0.9710    1.3570 C   0  0  0  0  0  0  0  0  0  0  0  0
   -6.8800    1.2430    2.0120 C   0  0  0  0  0  0  0  0  0  0  0  0
   -5.2550   -0.1930    1.0610 O   0  0  0  0  0  0  0  0  0  0  0  0
  1  2  1  0
  2  3  1  0
  3  4  2  0
  3  5  1  0
  5  6  1  1
  5  7  1  0
  5  8  1  0
  8  9  1  0
  9 10  1  0
 10 11  2  0
 10 12  1  0
 12 13  1  0
 13 14  1  0
 14 15  2  0
 14 16  1  0
 16 17  1  0
 17 18  2  0
 17 26  1  0
 18 19  1  0
 19 20  1  0
 19 24  2  0
 20 21  1  0
 21 22  1  0
 22 23  1  0
 24 25  1  0
 25 26  2  0
 26 27  1  0
 27 28  1  0
 28 29  1  0
 29 30  1  0
 29 34  2  0
 30 31  1  0
 31 32  1  0
 31 33  2  0
 33 34  1  0
 34 35  1  0
 35 36  1  0
 35 37  2  0
M  END
