
     RDKit          3D

 37 39  0  0  0  0  0  0  0  0999 V2000
   -2.4860    5.5840    0.3810 C   0  0  0  0  0  0  0  0  0  0  0  0
   -2.4260    4.2610   -0.3450 C   0  0  0  0  0  0  0  0  0  0  0  0
   -1.6840    3.3190    0.3400 O   0  0  0  0  0  0  0  0  0  0  0  0
   -0.3440    3.4720    0.6180 C   0  0  0  0  0  0  0  0  0  0  0  0
    0.3150    4.5970    0.1900 C   0  0  0  0  0  0  0  0  0  0  0  0
    1.6580    4.7510    0.4730 C   0  0  0  0  0  0  0  0  0  0  0  0
    2.3090    3.7890    1.1690 C   0  0  0  0  0  0  0  0  0  0  0  0
    1.6390    2.6440    1.6050 C   0  0  0  0  0  0  0  0  0  0  0  0
    2.4200    1.6670    2.3610 C   0  0  0  0  0  0  0  0  0  0  0  0
    2.7950    0.5360    1.4880 C   0  0  0  0  0  0  0  0  0  0  0  0
    2.4900    0.4720    0.2770 O   0  0  0  0  0  0  0  0  0  0  0  0
    3.5250   -0.5170    2.0200 O   0  0  0  0  0  0  0  0  0  0  0  0
    3.8800   -1.5810    1.2020 C   0  0  0  0  0  0  0  0  0  0  0  0
    3.0860   -2.7230    1.0700 C   0  0  0  0  0  0  0  0  0  0  0  0
    3.4610   -3.7640    0.2510 C   0  0  0  0  0  0  0  0  0  0  0  0
    4.6560   -3.6940   -0.4700 C   0  0  0  0  0  0  0  0  0  0  0  0
    5.4630   -2.5720   -0.3580 C   0  0  0  0  0  0  0  0  0  0  0  0
    6.7470   -2.5020   -1.1360 C   0  0  0  0  0  0  0  0  0  0  0  0
    7.9040   -3.0540   -0.3560 C   0  0  0  0  0  0  0  0  0  0  0  0
    5.0520   -1.5640    0.4660 C   0  0  0  0  0  0  0  0  0  0  0  0
    0.3020    2.4540    1.3430 C   0  0  0  0  0  0  0  0  0  0  0  0
   -0.3660    1.3900    1.7400 O   0  0  0  0  0  0  0  0  0  0  0  0
   -0.7420    0.1510    1.3550 C   0  0  0  0  0  0  0  0  0  0  0  0
   -1.5940    0.0000    0.1580 C   0  0  0  0  0  0  0  0  0  0  0  0
   -2.7950   -0.5650    0.2860 C   0  0  0  0  0  0  0  0  0  0  0  0
   -3.1550   -0.9760    1.5900 N   0  0  0  0  0  0  0  0  0  0  0  0
   -3.6980   -0.7710   -0.7920 N   0  0  0  0  0  0  0  0  0  0  0  0
   -4.9970   -1.3690   -0.6210 C   0  0  2  0  0  0  0  0  0  0  0  0
   -5.7850   -0.9180    0.5510 C   0  0  0  0  0  0  0  0  0  0  0  0
   -5.0600   -2.8370   -0.8710 C   0  0  0  0  0  0  0  0  0  0  0  0
   -4.1830   -3.7010   -0.0330 C   0  0  2  0  0  0  0  0  0  0  0  0
   -2.8450   -3.4640   -0.1560 F   0  0  0  0  0  0  0  0  0  0  0  0
   -4.4000   -5.0170   -0.4490 F   0  0  0  0  0  0  0  0  0  0  0  0
   -3.2950   -0.4010   -2.1260 C   0  0  0  0  0  0  0  0  0  0  0  0
   -2.0560    0.2910   -2.2440 N   0  0  0  0  0  0  0  0  0  0  0  0
   -1.1820    0.4540   -1.1480 C   0  0  0  0  0  0  0  0  0  0  0  0
   -0.0360    1.0000   -1.3260 O   0  0  0  0  0  0  0  0  0  0  0  0
  1  2  1  0
  2  3  1  0
  3  4  1  0
  4  5  2  0
  4 21  1  0
  5  6  1  0
  6  7  2  0
  7  8  1  0
  8  9  1  0
  8 21  2  0
  9 10  1  0
 10 11  2  0
 10 12  1  0
 12 13  1  0
 13 14  2  0
 13 20  1  0
 14 15  1  0
 15 16  2  0
 16 17  1  0
 17 18  1  0
 17 20  2  0
 18 19  1  0
 21 22  1  0
 22 23  1  0
 23 24  1  0
 24 25  2  0
 24 36  1  0
 25 26  1  0
 25 27  1  0
 27 28  1  0
 27 34  1  0
 28 29  1  1
 28 30  1  0
 30 31  1  0
 31 32  1  6
 31 33  1  0
 34 35  1  0
 35 36  1  0
 36 37  2  0
M  END
