
     RDKit          3D

 37 38  0  0  0  0  0  0  0  0999 V2000
    2.5020   -1.9720   -0.1590 C   0  0  0  0  0  0  0  0  0  0  0  0
    2.9070   -0.6590    0.6490 C   0  0  2  0  0  0  0  0  0  0  0  0
    2.8990   -1.0560    2.0720 C   0  0  0  0  0  0  0  0  0  0  0  0
    1.8800    0.2270    0.2290 O   0  0  0  0  0  0  0  0  0  0  0  0
    0.5910   -0.1940    0.4090 C   0  0  0  0  0  0  0  0  0  0  0  0
    0.4180   -1.3760    0.8750 O   0  0  0  0  0  0  0  0  0  0  0  0
   -0.5770    0.5090    0.1510 O   0  0  0  0  0  0  0  0  0  0  0  0
   -1.7910   -0.2000    0.4350 C   0  0  0  0  0  0  0  0  0  0  0  0
   -3.0270    0.5300    0.2810 C   0  0  0  0  0  0  0  0  0  0  0  0
   -3.1560    1.8510    0.5460 C   0  0  0  0  0  0  0  0  0  0  0  0
   -4.4140    2.4510    0.4910 C   0  0  0  0  0  0  0  0  0  0  0  0
   -5.5230    1.7300    0.1760 C   0  0  0  0  0  0  0  0  0  0  0  0
   -6.7790    2.2260    0.1140 O   0  0  0  0  0  0  0  0  0  0  0  0
   -7.2650    3.4960    0.3170 C   0  0  0  0  0  0  0  0  0  0  0  0
   -6.8250    4.5590   -0.6350 C   0  0  0  0  0  0  0  0  0  0  0  0
   -7.2380    4.2300   -2.0430 C   0  0  0  0  0  0  0  0  0  0  0  0
   -7.8890    3.2350   -2.2800 O   0  0  0  0  0  0  0  0  0  0  0  0
   -5.3750    0.3380   -0.1090 C   0  0  0  0  0  0  0  0  0  0  0  0
   -6.5360   -0.3060   -0.4150 O   0  0  0  0  0  0  0  0  0  0  0  0
   -6.7870   -1.6140   -0.7100 C   0  0  0  0  0  0  0  0  0  0  0  0
   -6.5040   -2.5930    0.3680 C   0  0  1  0  0  0  0  0  0  0  0  0
   -7.2740   -2.3410    1.5150 O   0  0  0  0  0  0  0  0  0  0  0  0
   -6.9350   -3.9890   -0.0810 C   0  0  0  0  0  0  0  0  0  0  0  0
   -8.3150   -3.9650   -0.2830 O   0  0  0  0  0  0  0  0  0  0  0  0
   -4.1560   -0.2530   -0.0580 C   0  0  0  0  0  0  0  0  0  0  0  0
    4.1830   -0.3640    0.0190 C   0  0  0  0  0  0  0  0  0  0  0  0
    4.4890    0.1410   -0.9660 O   0  0  0  0  0  0  0  0  0  0  0  0
    5.5010   -0.9240    1.0030 N   0  0  0  0  0  0  0  0  0  0  0  0
    6.5020   -0.8450   -0.0230 C   0  0  0  0  0  0  0  0  0  0  0  0
    6.5180   -0.5810   -1.1760 O   0  0  0  0  0  0  0  0  0  0  0  0
    7.8070   -1.2100    0.6120 N   0  0  0  0  0  0  0  0  0  0  0  0
    9.0320   -1.2480   -0.0270 C   0  0  0  0  0  0  0  0  0  0  0  0
    9.5110    0.0500   -0.5950 C   0  0  0  0  0  0  0  0  0  0  0  0
    8.9710    1.2410   -0.6130 C   0  0  0  0  0  0  0  0  0  0  0  0
    9.8950    2.1740   -1.3130 C   0  0  0  0  0  0  0  0  0  0  0  0
   11.0300    1.3220   -1.6790 C   0  0  0  0  0  0  0  0  0  0  0  0
   10.8190    0.1070   -1.2740 C   0  0  0  0  0  0  0  0  0  0  0  0
  2  1  1  6
  2  3  1  0
  2  4  1  0
  2 26  1  0
  4  5  1  0
  5  6  2  0
  5  7  1  0
  7  8  1  0
  8  9  1  0
  9 10  2  0
  9 25  1  0
 10 11  1  0
 11 12  2  0
 12 13  1  0
 12 18  1  0
 13 14  1  0
 14 15  1  0
 15 16  1  0
 16 17  2  0
 18 19  1  0
 18 25  2  0
 19 20  1  0
 20 21  1  0
 21 22  1  1
 21 23  1  0
 23 24  1  0
 26 27  2  0
 26 28  1  0
 28 29  1  0
 29 30  2  0
 29 31  1  0
 31 32  1  0
 32 33  1  0
 33 34  2  0
 33 37  1  0
 34 35  1  0
 35 36  1  0
 36 37  2  0
M  END
