
     RDKit          3D

 37 38  0  0  0  0  0  0  0  0999 V2000
   -5.0180    7.6610    0.5960 C   0  0  0  0  0  0  0  0  0  0  0  0
   -4.7130    6.8250   -0.2410 C   0  0  0  0  0  0  0  0  0  0  0  0
   -4.3670    5.8260   -1.2200 C   0  0  0  0  0  0  0  0  0  0  0  0
   -3.5940    4.7430   -0.7780 O   0  0  0  0  0  0  0  0  0  0  0  0
   -3.9640    4.0500    0.4780 C   0  0  0  0  0  0  0  0  0  0  0  0
   -4.8870    4.3780    1.1050 O   0  0  0  0  0  0  0  0  0  0  0  0
   -3.0130    2.9860    0.7160 C   0  0  0  0  0  0  0  0  0  0  0  0
   -2.1770    3.1020    1.8390 C   0  0  0  0  0  0  0  0  0  0  0  0
   -1.2270    2.1260    2.0230 C   0  0  0  0  0  0  0  0  0  0  0  0
   -1.1000    1.0950    1.1180 C   0  0  0  0  0  0  0  0  0  0  0  0
   -0.2600    0.1050    1.0710 O   0  0  0  0  0  0  0  0  0  0  0  0
    0.6060   -0.8030    1.1210 C   0  0  0  0  0  0  0  0  0  0  0  0
    1.8020   -0.6150    0.5720 O   0  0  0  0  0  0  0  0  0  0  0  0
    2.9080   -0.4300   -0.0260 C   0  0  0  0  0  0  0  0  0  0  0  0
    3.2920   -0.2420   -1.4000 C   0  0  0  0  0  0  0  0  0  0  0  0
    4.5820   -0.0730   -1.7130 C   0  0  0  0  0  0  0  0  0  0  0  0
    5.5520   -0.1050   -0.5920 C   0  0  0  0  0  0  0  0  0  0  0  0
    6.9100   -0.2880   -1.0650 C   0  0  0  0  0  0  0  0  0  0  0  0
    7.3410   -0.5730   -2.0750 O   0  0  0  0  0  0  0  0  0  0  0  0
    7.9150   -0.0380    0.0720 O   0  0  0  0  0  0  0  0  0  0  0  0
    9.2630   -0.2400   -0.5260 C   0  0  0  0  0  0  0  0  0  0  0  0
    9.4660   -1.6710   -0.9360 C   0  0  0  0  0  0  0  0  0  0  0  0
    9.3390   -2.5280    0.1710 O   0  0  0  0  0  0  0  0  0  0  0  0
    5.1980   -0.2520    0.6750 C   0  0  0  0  0  0  0  0  0  0  0  0
    3.9460   -0.3960    0.9140 C   0  0  0  0  0  0  0  0  0  0  0  0
    3.4600   -0.5150    2.3060 O   0  0  0  0  0  0  0  0  0  0  0  0
   -1.9700    0.9740   -0.0530 C   0  0  0  0  0  0  0  0  0  0  0  0
   -1.5730   -0.1060   -1.0040 C   0  0  0  0  0  0  0  0  0  0  0  0
   -2.2300   -1.3060   -0.7200 N   0  0  0  0  0  0  0  0  0  0  0  0
   -3.4790   -1.7570   -0.4560 C   0  0  0  0  0  0  0  0  0  0  0  0
   -4.4560   -0.8220   -0.6080 O   0  0  0  0  0  0  0  0  0  0  0  0
   -3.9350   -2.9910   -0.0650 N   0  0  0  0  0  0  0  0  0  0  0  0
   -5.2150   -3.4310    0.4320 C   0  0  2  0  0  0  0  0  0  0  0  0
   -5.1760   -4.9070    0.7260 C   0  0  0  0  0  0  0  0  0  0  0  0
   -6.3900   -3.0160   -0.3820 C   0  0  0  0  0  0  0  0  0  0  0  0
   -7.5200   -3.4710    0.2190 O   0  0  0  0  0  0  0  0  0  0  0  0
   -2.8770    1.9320   -0.1790 C   0  0  0  0  0  0  0  0  0  0  0  0
  1  2  3  0
  2  3  1  0
  3  4  1  0
  4  5  1  0
  5  6  2  0
  5  7  1  0
  7  8  2  0
  7 37  1  0
  8  9  1  0
  9 10  2  0
 10 11  1  0
 10 27  1  0
 11 12  1  0
 12 13  1  0
 13 14  1  0
 14 15  2  0
 14 25  1  0
 15 16  1  0
 16 17  2  0
 17 18  1  0
 17 24  1  0
 18 19  2  0
 18 20  1  0
 20 21  1  0
 21 22  1  0
 22 23  1  0
 24 25  2  0
 25 26  1  0
 27 28  1  0
 27 37  2  0
 28 29  1  0
 29 30  1  0
 30 31  2  0
 30 32  1  0
 32 33  1  0
 33 34  1  6
 33 35  1  0
 35 36  1  0
M  END
