
     RDKit          3D

 37 39  0  0  0  0  0  0  0  0999 V2000
   -7.2530    0.2930    0.1130 C   0  0  0  0  0  0  0  0  0  0  0  0
   -6.6750   -0.6610   -0.8650 C   0  0  0  0  0  0  0  0  0  0  0  0
   -5.7480   -1.6950   -0.3370 C   0  0  1  0  0  0  0  0  0  0  0  0
   -4.6210   -1.0690    0.3200 N   0  0  0  0  0  0  0  0  0  0  0  0
   -3.2950   -1.0700   -0.1700 C   0  0  0  0  0  0  0  0  0  0  0  0
   -3.0940   -1.6690   -1.2670 O   0  0  0  0  0  0  0  0  0  0  0  0
   -2.1770   -0.4240    0.5250 C   0  0  0  0  0  0  0  0  0  0  0  0
   -2.3170    0.3670    1.6360 C   0  0  0  0  0  0  0  0  0  0  0  0
   -1.2490    0.9550    2.2700 C   0  0  0  0  0  0  0  0  0  0  0  0
    0.0130    0.7440    1.7720 C   0  0  0  0  0  0  0  0  0  0  0  0
    1.0520    1.3580    2.4440 O   0  0  0  0  0  0  0  0  0  0  0  0
    1.8280    2.3270    1.8270 C   0  0  0  0  0  0  0  0  0  0  0  0
    1.5400    2.8100    0.5670 C   0  0  0  0  0  0  0  0  0  0  0  0
    2.3230    3.7650   -0.0150 C   0  0  0  0  0  0  0  0  0  0  0  0
    3.4120    4.2530    0.6580 C   0  0  0  0  0  0  0  0  0  0  0  0
    4.2520    5.2910    0.0060 C   0  0  0  0  0  0  0  0  0  0  0  0
    3.7000    3.7700    1.9190 C   0  0  0  0  0  0  0  0  0  0  0  0
    4.7720    4.2610    2.5640 F   0  0  0  0  0  0  0  0  0  0  0  0
    2.9360    2.8160    2.5280 C   0  0  0  0  0  0  0  0  0  0  0  0
    0.2220   -0.0510    0.6450 C   0  0  0  0  0  0  0  0  0  0  0  0
    1.5720   -0.2360    0.2610 N   0  0  0  0  0  0  0  0  0  0  0  0
    2.0470   -0.9100   -0.8890 C   0  0  0  0  0  0  0  0  0  0  0  0
    1.2020   -1.4120   -1.6800 O   0  0  0  0  0  0  0  0  0  0  0  0
    3.4540   -1.0460   -1.1900 C   0  0  0  0  0  0  0  0  0  0  0  0
    3.8620   -1.9760   -2.1130 C   0  0  0  0  0  0  0  0  0  0  0  0
    5.1980   -2.1370   -2.4360 C   0  0  0  0  0  0  0  0  0  0  0  0
    6.1330   -1.3620   -1.8300 C   0  0  0  0  0  0  0  0  0  0  0  0
    7.5180   -1.4560   -2.0670 N   0  0  0  0  0  0  0  0  0  0  0  0
    8.0790   -2.5860   -2.7050 C   0  0  0  0  0  0  0  0  0  0  0  0
    7.4660   -3.5860   -3.1120 O   0  0  0  0  0  0  0  0  0  0  0  0
    5.7290   -0.4080   -0.8860 C   0  0  0  0  0  0  0  0  0  0  0  0
    4.3910   -0.2700   -0.5850 C   0  0  0  0  0  0  0  0  0  0  0  0
   -0.8700   -0.6120    0.0530 C   0  0  0  0  0  0  0  0  0  0  0  0
   -6.3110   -2.8820    0.3260 C   0  0  1  0  0  0  0  0  0  0  0  0
   -5.3010   -3.8640    0.4120 O   0  0  0  0  0  0  0  0  0  0  0  0
   -6.9950   -2.7400    1.6240 C   0  0  0  0  0  0  0  0  0  0  0  0
   -8.1050   -1.9320    1.6360 F   0  0  0  0  0  0  0  0  0  0  0  0
  1  2  1  0
  3  2  1  1
  3  4  1  0
  3 34  1  0
  4  5  1  0
  5  6  2  0
  5  7  1  0
  7  8  2  0
  7 33  1  0
  8  9  1  0
  9 10  2  0
 10 11  1  0
 10 20  1  0
 11 12  1  0
 12 13  2  0
 12 19  1  0
 13 14  1  0
 14 15  2  0
 15 16  1  0
 15 17  1  0
 17 18  1  0
 17 19  2  0
 20 21  1  0
 20 33  2  0
 21 22  1  0
 22 23  2  0
 22 24  1  0
 24 25  2  0
 24 32  1  0
 25 26  1  0
 26 27  2  0
 27 28  1  0
 27 31  1  0
 28 29  1  0
 29 30  2  0
 31 32  2  0
 34 35  1  1
 34 36  1  0
 36 37  1  0
M  END
