
     RDKit          3D

 37 38  0  0  0  0  0  0  0  0999 V2000
    7.7280    1.9450    1.2080 C   0  0  0  0  0  0  0  0  0  0  0  0
    7.1300    1.7530   -0.1730 C   0  0  0  0  0  0  0  0  0  0  0  0
    6.3660    0.5010   -0.2930 C   0  0  0  0  0  0  0  0  0  0  0  0
    4.9920    0.5430   -0.2810 C   0  0  0  0  0  0  0  0  0  0  0  0
    4.2220   -0.5940   -0.3890 C   0  0  0  0  0  0  0  0  0  0  0  0
    2.8220   -0.4900   -0.3710 O   0  0  0  0  0  0  0  0  0  0  0  0
    2.1690   -0.5680    0.8310 C   0  0  0  0  0  0  0  0  0  0  0  0
    2.8540   -0.7300    1.8770 O   0  0  0  0  0  0  0  0  0  0  0  0
    0.6950   -0.4730    0.9900 C   0  0  0  0  0  0  0  0  0  0  0  0
    0.0020   -0.2790   -0.3420 C   0  0  0  0  0  0  0  0  0  0  0  0
   -1.4090   -0.2000   -0.0780 N   0  0  0  0  0  0  0  0  0  0  0  0
   -2.0220    1.0700    0.1850 C   0  0  0  0  0  0  0  0  0  0  0  0
   -2.5040    1.7880   -1.0600 C   0  0  0  0  0  0  0  0  0  0  0  0
   -3.1350    3.1080   -0.7260 C   0  0  1  0  0  0  0  0  0  0  0  0
   -4.2130    2.9760    0.1340 O   0  0  0  0  0  0  0  0  0  0  0  0
   -2.2230    4.2130   -0.4190 C   0  0  0  0  0  0  0  0  0  0  0  0
   -0.9220    4.2400   -0.5530 C   0  0  0  0  0  0  0  0  0  0  0  0
   -0.0510    3.2250   -1.0240 O   0  0  0  0  0  0  0  0  0  0  0  0
   -0.4090    5.5640   -0.1220 C   0  0  0  0  0  0  0  0  0  0  0  0
   -1.4880    6.0620    0.8030 C   0  0  0  0  0  0  0  0  0  0  0  0
   -2.6940    5.5400    0.0740 C   0  0  0  0  0  0  0  0  0  0  0  0
   -3.8050    6.0820   -0.0790 O   0  0  0  0  0  0  0  0  0  0  0  0
   -2.1840   -1.3910   -0.0850 C   0  0  0  0  0  0  0  0  0  0  0  0
   -1.6300   -2.5200   -0.3330 O   0  0  0  0  0  0  0  0  0  0  0  0
   -3.6370   -1.4060    0.1870 C   0  0  0  0  0  0  0  0  0  0  0  0
   -4.1150   -2.7290    0.1000 O   0  0  0  0  0  0  0  0  0  0  0  0
   -3.9960   -3.3960   -1.1060 C   0  0  0  0  0  0  0  0  0  0  0  0
   -3.4860   -2.8810   -2.1280 O   0  0  0  0  0  0  0  0  0  0  0  0
   -4.4790   -4.8040   -1.2710 C   0  0  0  0  0  0  0  0  0  0  0  0
   -5.0590   -5.2800    0.0480 C   0  0  0  0  0  0  0  0  0  0  0  0
   -5.5370   -6.6670   -0.1070 C   0  0  0  0  0  0  0  0  0  0  0  0
   -6.1210   -7.3440    0.9910 N   0  0  0  0  0  0  0  0  0  0  0  0
   -5.4380   -7.2670   -1.2000 O   0  0  0  0  0  0  0  0  0  0  0  0
    4.8310   -1.8310   -0.5150 C   0  0  0  0  0  0  0  0  0  0  0  0
    6.2220   -1.8850   -0.5280 C   0  0  0  0  0  0  0  0  0  0  0  0
    6.9790   -0.7370   -0.4190 C   0  0  0  0  0  0  0  0  0  0  0  0
    8.3660   -0.7740   -0.4300 O   0  0  0  0  0  0  0  0  0  0  0  0
  1  2  1  0
  2  3  1  0
  3  4  2  0
  3 36  1  0
  4  5  1  0
  5  6  1  0
  5 34  2  0
  6  7  1  0
  7  8  2  0
  7  9  1  0
  9 10  1  0
 10 11  1  0
 11 12  1  0
 11 23  1  0
 12 13  1  0
 13 14  1  0
 14 15  1  1
 14 16  1  0
 16 17  2  0
 16 21  1  0
 17 18  1  0
 17 19  1  0
 19 20  1  0
 20 21  1  0
 21 22  2  0
 23 24  2  0
 23 25  1  0
 25 26  1  0
 26 27  1  0
 27 28  2  0
 27 29  1  0
 29 30  1  0
 30 31  1  0
 31 32  1  0
 31 33  2  0
 34 35  1  0
 35 36  2  0
 36 37  1  0
M  END
