
     RDKit          3D

 37 38  0  0  0  0  0  0  0  0999 V2000
    4.1740    2.9550    3.7030 C   0  0  0  0  0  0  0  0  0  0  0  0
    4.2330    3.4850    2.4480 O   0  0  0  0  0  0  0  0  0  0  0  0
    3.0510    3.4850    1.7390 C   0  0  0  0  0  0  0  0  0  0  0  0
    2.5050    2.0510    1.5200 C   0  0  1  0  0  0  0  0  0  0  0  0
    1.3410    2.1750    0.8020 O   0  0  0  0  0  0  0  0  0  0  0  0
    0.2020    2.0070    1.5990 C   0  0  0  0  0  0  0  0  0  0  0  0
   -1.0700    2.0720    0.8120 C   0  0  0  0  0  0  0  0  0  0  0  0
   -2.2190    2.0340    1.7410 C   0  0  0  0  0  0  0  0  0  0  0  0
   -2.0880    2.2040    2.9900 O   0  0  0  0  0  0  0  0  0  0  0  0
   -3.5420    1.8070    1.2620 N   0  0  0  0  0  0  0  0  0  0  0  0
   -4.7100    1.8210    2.1200 C   0  0  0  0  0  0  0  0  0  0  0  0
   -5.9170    1.4170    1.2440 C   0  0  0  0  0  0  0  0  0  0  0  0
   -5.8190    0.2190    0.7720 O   0  0  0  0  0  0  0  0  0  0  0  0
   -5.6870   -0.9640    0.2850 C   0  0  0  0  0  0  0  0  0  0  0  0
   -4.5370   -1.3090   -0.4330 C   0  0  0  0  0  0  0  0  0  0  0  0
   -4.4010   -2.5620   -0.9280 C   0  0  0  0  0  0  0  0  0  0  0  0
   -3.2320   -2.9020   -1.6440 O   0  0  0  0  0  0  0  0  0  0  0  0
   -5.3590   -3.5130   -0.7500 C   0  0  0  0  0  0  0  0  0  0  0  0
   -5.2410   -4.8860   -1.2800 C   0  0  0  0  0  0  0  0  0  0  0  0
   -6.5120   -3.1810   -0.0370 C   0  0  0  0  0  0  0  0  0  0  0  0
   -6.6800   -1.9420    0.4690 C   0  0  0  0  0  0  0  0  0  0  0  0
   -7.8400   -1.6200    1.1770 O   0  0  0  0  0  0  0  0  0  0  0  0
   -8.7950   -2.6130    1.4590 C   0  0  0  0  0  0  0  0  0  0  0  0
    3.5390    1.3610    0.6970 C   0  0  0  0  0  0  0  0  0  0  0  0
    4.6940    1.2010    1.1650 O   0  0  0  0  0  0  0  0  0  0  0  0
    3.2080    0.8960   -0.6100 N   0  0  0  0  0  0  0  0  0  0  0  0
    4.1220    0.2550   -1.4830 C   0  0  0  0  0  0  0  0  0  0  0  0
    5.4690    0.1750   -1.3270 C   0  0  0  0  0  0  0  0  0  0  0  0
    6.3440   -0.4290   -2.2560 C   0  0  0  0  0  0  0  0  0  0  0  0
    7.6830   -0.4430   -1.9720 O   0  0  0  0  0  0  0  0  0  0  0  0
    8.4320    0.0300   -0.9380 C   0  0  0  0  0  0  0  0  0  0  0  0
    5.8010   -0.9680   -3.3900 C   0  0  0  0  0  0  0  0  0  0  0  0
    6.6740   -1.6250   -4.4080 C   0  0  0  0  0  0  0  0  0  0  0  0
    5.8680   -2.0830   -5.4530 O   0  0  0  0  0  0  0  0  0  0  0  0
    4.4400   -0.9020   -3.5850 C   0  0  0  0  0  0  0  0  0  0  0  0
    3.5880   -0.2980   -2.6370 C   0  0  0  0  0  0  0  0  0  0  0  0
    2.2500   -0.3090   -2.9620 O   0  0  0  0  0  0  0  0  0  0  0  0
  1  2  1  0
  2  3  1  0
  4  3  1  6
  4  5  1  0
  4 24  1  0
  5  6  1  0
  6  7  1  0
  7  8  1  0
  8  9  2  0
  8 10  1  0
 10 11  1  0
 11 12  1  0
 12 13  1  0
 13 14  1  0
 14 15  2  0
 14 21  1  0
 15 16  1  0
 16 17  1  0
 16 18  2  0
 18 19  1  0
 18 20  1  0
 20 21  2  0
 21 22  1  0
 22 23  1  0
 24 25  2  0
 24 26  1  0
 26 27  1  0
 27 28  2  0
 27 36  1  0
 28 29  1  0
 29 30  1  0
 29 32  2  0
 30 31  1  0
 32 33  1  0
 32 35  1  0
 33 34  1  0
 35 36  2  0
 36 37  1  0
M  END
