
     RDKit          3D

 37 38  0  0  0  0  0  0  0  0999 V2000
  -10.7030    0.3970   -0.3970 C   0  0  0  0  0  0  0  0  0  0  0  0
   -9.8450    0.1480    0.7800 C   0  0  0  0  0  0  0  0  0  0  0  0
  -10.3930    0.0620    2.0230 C   0  0  0  0  0  0  0  0  0  0  0  0
   -9.6100   -0.1660    3.1220 C   0  0  0  0  0  0  0  0  0  0  0  0
  -10.1920   -0.2630    4.4840 C   0  0  0  0  0  0  0  0  0  0  0  0
   -8.2100   -0.3230    3.0200 C   0  0  0  0  0  0  0  0  0  0  0  0
   -7.5300   -0.5480    4.1790 O   0  0  0  0  0  0  0  0  0  0  0  0
   -7.6460   -0.2390    1.7640 C   0  0  0  0  0  0  0  0  0  0  0  0
   -6.2130   -0.3880    1.6070 C   0  0  0  0  0  0  0  0  0  0  0  0
   -5.4130   -0.5920    2.5530 O   0  0  0  0  0  0  0  0  0  0  0  0
   -5.5860   -0.3100    0.3120 N   0  0  0  0  0  0  0  0  0  0  0  0
   -4.1290   -0.4650    0.1820 C   0  0  0  0  0  0  0  0  0  0  0  0
   -3.8020   -0.3420   -1.2700 C   0  0  0  0  0  0  0  0  0  0  0  0
   -2.3580   -0.4740   -1.5520 C   0  0  0  0  0  0  0  0  0  0  0  0
   -1.5730   -0.6510   -0.5870 O   0  0  0  0  0  0  0  0  0  0  0  0
   -1.8270   -0.4070   -2.8680 N   0  0  0  0  0  0  0  0  0  0  0  0
   -0.4030   -0.5400   -3.0800 C   0  0  0  0  0  0  0  0  0  0  0  0
    0.3540    0.5100   -2.3790 C   0  0  0  0  0  0  0  0  0  0  0  0
   -0.2360    1.3560   -1.6870 O   0  0  0  0  0  0  0  0  0  0  0  0
    1.7250    0.5530   -2.4940 O   0  0  0  0  0  0  0  0  0  0  0  0
    2.5350    1.5120   -1.8680 C   0  0  0  0  0  0  0  0  0  0  0  0
    3.9620    1.2800   -2.2240 C   0  0  0  0  0  0  0  0  0  0  0  0
    4.8780    2.0190   -1.7830 O   0  0  0  0  0  0  0  0  0  0  0  0
    4.2940    0.2390   -3.0540 O   0  0  0  0  0  0  0  0  0  0  0  0
    5.5800   -0.0840   -3.4700 C   0  0  0  0  0  0  0  0  0  0  0  0
    6.5170   -0.4060   -2.3570 C   0  0  0  0  0  0  0  0  0  0  0  0
    7.8750   -0.6770   -2.5140 C   0  0  0  0  0  0  0  0  0  0  0  0
    8.3910   -0.9250   -1.2640 C   0  0  0  0  0  0  0  0  0  0  0  0
    7.3390   -0.7990   -0.3830 C   0  0  0  0  0  0  0  0  0  0  0  0
    7.3610   -0.9670    1.0960 C   0  0  2  0  0  0  0  0  0  0  0  0
    6.5920    0.0780    1.6230 O   0  0  0  0  0  0  0  0  0  0  0  0
    8.7650   -0.7450    1.6290 C   0  0  0  0  0  0  0  0  0  0  0  0
    9.1660    0.6730    1.2690 C   0  0  0  0  0  0  0  0  0  0  0  0
   10.5660    0.8850    1.8000 C   0  0  0  0  0  0  0  0  0  0  0  0
   11.0310    2.1800    1.5150 O   0  0  0  0  0  0  0  0  0  0  0  0
    6.2880   -0.4990   -1.0790 O   0  0  0  0  0  0  0  0  0  0  0  0
   -8.4640   -0.0060    0.6690 C   0  0  0  0  0  0  0  0  0  0  0  0
  1  2  1  0
  2  3  2  0
  2 37  1  0
  3  4  1  0
  4  5  1  0
  4  6  2  0
  6  7  1  0
  6  8  1  0
  8  9  1  0
  8 37  2  0
  9 10  2  0
  9 11  1  0
 11 12  1  0
 12 13  1  0
 13 14  1  0
 14 15  2  0
 14 16  1  0
 16 17  1  0
 17 18  1  0
 18 19  2  0
 18 20  1  0
 20 21  1  0
 21 22  1  0
 22 23  2  0
 22 24  1  0
 24 25  1  0
 25 26  1  0
 26 27  2  0
 26 36  1  0
 27 28  1  0
 28 29  2  0
 29 30  1  0
 29 36  1  0
 30 31  1  1
 30 32  1  0
 32 33  1  0
 33 34  1  0
 34 35  1  0
M  END
