
     RDKit          3D

 30 31  0  0  0  0  0  0  0  0999 V2000
   -6.4800   -2.4820   -0.5560 C   0  0  0  0  0  0  0  0  0  0  0  0
   -5.7810   -1.2700   -0.9140 N   0  0  0  0  0  0  0  0  0  0  0  0
   -4.7490   -0.7470   -0.0390 C   0  0  0  0  0  0  0  0  0  0  0  0
   -4.4570   -1.3300    1.0180 O   0  0  0  0  0  0  0  0  0  0  0  0
   -4.0840    0.4210   -0.3960 N   0  0  0  0  0  0  0  0  0  0  0  0
   -3.0560    1.0950    0.3090 C   0  0  0  0  0  0  0  0  0  0  0  0
   -2.5210    0.7020    1.5130 C   0  0  0  0  0  0  0  0  0  0  0  0
   -1.5120    1.3940    2.1700 C   0  0  0  0  0  0  0  0  0  0  0  0
   -1.0390    0.9140    3.3770 O   0  0  0  0  0  0  0  0  0  0  0  0
   -1.5340   -0.2630    3.9310 C   0  0  0  0  0  0  0  0  0  0  0  0
   -1.2290   -1.4450    3.0980 C   0  0  0  0  0  0  0  0  0  0  0  0
   -1.7160   -2.5940    3.3700 O   0  0  0  0  0  0  0  0  0  0  0  0
   -0.3840   -1.3800    1.9600 N   0  0  0  0  0  0  0  0  0  0  0  0
   -0.1100   -2.5780    1.1570 C   0  0  0  0  0  0  0  0  0  0  0  0
    0.8150   -2.1590    0.0350 C   0  0  0  0  0  0  0  0  0  0  0  0
    1.1420   -3.2250   -0.7930 O   0  0  0  0  0  0  0  0  0  0  0  0
    1.9930   -2.7530   -1.7940 C   0  0  0  0  0  0  0  0  0  0  0  0
    3.2170   -2.1910   -1.2040 C   0  0  0  0  0  0  0  0  0  0  0  0
    3.6600   -0.9790   -1.3100 C   0  0  0  0  0  0  0  0  0  0  0  0
    4.8930   -0.6950   -0.6280 C   0  0  0  0  0  0  0  0  0  0  0  0
    5.7370    0.2660   -0.9360 C   0  0  0  0  0  0  0  0  0  0  0  0
    5.4780    1.1750   -2.0600 C   0  0  0  0  0  0  0  0  0  0  0  0
    5.4090    2.5230   -1.5210 N   0  0  0  0  0  0  0  0  0  0  0  0
    5.1600   -1.6230    0.5100 C   0  0  0  0  0  0  0  0  0  0  0  0
    4.3440   -3.1270   -0.1800 S   0  0  0  0  0  0  0  0  0  0  0  0
   -1.0000    2.5460    1.6050 C   0  0  0  0  0  0  0  0  0  0  0  0
   -1.5100    2.9680    0.4050 C   0  0  0  0  0  0  0  0  0  0  0  0
   -2.5080    2.2690   -0.2300 C   0  0  0  0  0  0  0  0  0  0  0  0
   -3.0100    2.7130   -1.4440 O   0  0  0  0  0  0  0  0  0  0  0  0
   -2.5140    3.8880   -2.0580 C   0  0  0  0  0  0  0  0  0  0  0  0
  1  2  1  0
  2  3  1  0
  3  4  2  0
  3  5  1  0
  5  6  1  0
  6  7  2  0
  6 28  1  0
  7  8  1  0
  8  9  1  0
  8 26  2  0
  9 10  1  0
 10 11  1  0
 11 12  2  0
 11 13  1  0
 13 14  1  0
 14 15  1  0
 15 16  1  0
 16 17  1  0
 17 18  1  0
 18 19  2  0
 18 25  1  0
 19 20  1  0
 20 21  2  3
 20 24  1  0
 21 22  1  0
 22 23  1  0
 24 25  1  0
 26 27  1  0
 27 28  2  0
 28 29  1  0
 29 30  1  0
M  CHG  1  23   1
M  END
