
     RDKit          3D

 31 34  0  0  0  0  0  0  0  0999 V2000
    8.5890    1.8490   -0.5090 O   0  0  0  0  0  0  0  0  0  0  0  0
    8.7920    1.2580    0.5530 C   0  0  0  0  0  0  0  0  0  0  0  0
    9.9790    1.5070    1.2340 O   0  0  0  0  0  0  0  0  0  0  0  0
    7.8570    0.3590    1.0670 N   0  0  0  0  0  0  0  0  0  0  0  0
    6.6070    0.0040    0.4930 C   0  0  0  0  0  0  0  0  0  0  0  0
    6.0270    0.5990   -0.5950 C   0  0  0  0  0  0  0  0  0  0  0  0
    4.7990    0.1620   -1.0920 C   0  0  0  0  0  0  0  0  0  0  0  0
    4.1100   -0.8870   -0.5150 C   0  0  0  0  0  0  0  0  0  0  0  0
    2.5820   -1.3950   -1.2610 S   0  0  0  0  0  0  0  0  0  0  0  0
    1.1890   -0.3200   -0.9460 C   0  0  0  0  0  0  0  0  0  0  0  0
    0.7670   -0.3210    0.4890 C   0  0  2  0  0  0  0  0  0  0  0  0
    2.1970    0.2810    1.6150 Br  0  0  0  0  0  0  0  0  0  0  0  0
    0.2590   -1.6960    0.8470 C   0  0  0  0  0  0  0  0  0  0  0  0
   -0.7570   -2.0080   -0.1190 O   0  0  0  0  0  0  0  0  0  0  0  0
   -1.7410   -1.0710   -0.3510 C   0  0  0  0  0  0  0  0  0  0  0  0
   -2.9370   -1.3810   -0.9810 C   0  0  0  0  0  0  0  0  0  0  0  0
   -3.9190   -0.4410   -1.2120 C   0  0  0  0  0  0  0  0  0  0  0  0
   -5.4080   -0.9550   -2.0390 S   0  0  0  0  0  0  0  0  0  0  0  0
   -6.6880   -1.5220   -0.9180 C   0  0  0  0  0  0  0  0  0  0  0  0
   -7.1650   -0.3830   -0.0900 C   0  0  0  0  0  0  0  0  0  0  0  0
   -8.2190    0.4440   -0.4760 C   0  0  0  0  0  0  0  0  0  0  0  0
   -8.3840    1.3710    0.5110 C   0  0  0  0  0  0  0  0  0  0  0  0
   -7.4340    1.0930    1.4740 C   0  0  0  0  0  0  0  0  0  0  0  0
   -6.7520    0.0580    1.0680 O   0  0  0  0  0  0  0  0  0  0  0  0
   -3.7360    0.8650   -0.8140 C   0  0  0  0  0  0  0  0  0  0  0  0
   -2.5450    1.1810   -0.1850 C   0  0  0  0  0  0  0  0  0  0  0  0
   -1.5650    0.2320    0.0420 C   0  0  0  0  0  0  0  0  0  0  0  0
   -0.3640    0.5610    0.6780 O   0  0  0  0  0  0  0  0  0  0  0  0
    4.6810   -1.4970    0.5810 C   0  0  0  0  0  0  0  0  0  0  0  0
    3.8850   -2.8910    1.3390 Cl  0  0  0  0  0  0  0  0  0  0  0  0
    5.8880   -1.0530    1.0550 C   0  0  0  0  0  0  0  0  0  0  0  0
  1  2  2  0
  2  3  1  0
  2  4  1  0
  4  5  1  0
  5  6  2  0
  5 31  1  0
  6  7  1  0
  7  8  2  0
  8  9  1  0
  8 29  1  0
  9 10  1  0
 10 11  1  0
 11 12  1  1
 11 13  1  0
 11 28  1  0
 13 14  1  0
 14 15  1  0
 15 16  2  0
 15 27  1  0
 16 17  1  0
 17 18  1  0
 17 25  2  0
 18 19  1  0
 19 20  1  0
 20 21  2  0
 20 24  1  0
 21 22  1  0
 22 23  2  0
 23 24  1  0
 25 26  1  0
 26 27  2  0
 27 28  1  0
 29 30  1  0
 29 31  2  0
M  END
