
     RDKit          3D

 31 34  0  0  0  0  0  0  0  0999 V2000
    7.0880    1.1590    1.1010 C   0  0  0  0  0  0  0  0  0  0  0  0
    6.9550   -0.1500    1.2980 C   0  0  0  0  0  0  0  0  0  0  0  0
    5.8870   -0.8510    0.6090 C   0  0  0  0  0  0  0  0  0  0  0  0
    5.0240   -0.1270   -0.2360 O   0  0  0  0  0  0  0  0  0  0  0  0
    4.0300   -0.8520   -0.9240 C   0  0  0  0  0  0  0  0  0  0  0  0
    3.2050    0.0530   -1.7800 C   0  0  0  0  0  0  0  0  0  0  0  0
    3.4780    0.4570   -3.0660 C   0  0  0  0  0  0  0  0  0  0  0  0
    2.4550    1.2890   -3.4710 C   0  0  0  0  0  0  0  0  0  0  0  0
    1.5890    1.3520   -2.3840 C   0  0  0  0  0  0  0  0  0  0  0  0
    0.3690    2.1340   -2.3890 C   0  0  0  0  0  0  0  0  0  0  0  0
   -0.7560    1.6500   -1.8980 C   0  0  0  0  0  0  0  0  0  0  0  0
   -0.7500   -0.1180   -1.1780 Br  0  0  0  0  0  0  0  0  0  0  0  0
   -1.9920    2.4070   -1.8890 C   0  0  0  0  0  0  0  0  0  0  0  0
   -3.0910    1.8820   -1.3890 C   0  0  0  0  0  0  0  0  0  0  0  0
   -3.3400    0.2530   -0.6590 S   0  0  1  0  0  0  0  0  0  0  0  0
   -5.1370    0.3300   -0.4930 C   0  0  1  0  0  0  0  0  0  0  0  0
   -5.4930    0.2840    0.9120 N   0  0  0  0  0  0  0  0  0  0  0  0
   -6.5010   -0.5800    1.3530 C   0  0  0  0  0  0  0  0  0  0  0  0
   -7.1510   -1.3510    0.5770 O   0  0  0  0  0  0  0  0  0  0  0  0
   -6.8390   -0.6250    2.7180 O   0  0  0  0  0  0  0  0  0  0  0  0
   -7.8820   -1.5160    3.1390 C   0  0  0  0  0  0  0  0  0  0  0  0
   -9.1940   -1.1270    2.4520 C   0  0  0  0  0  0  0  0  0  0  0  0
   -5.4590    1.5920   -1.1140 N   0  0  0  0  0  0  0  0  0  0  0  0
   -4.4100    2.4890   -1.2660 C   0  0  0  0  0  0  0  0  0  0  0  0
   -4.5580    3.7600   -1.3000 O   0  0  0  0  0  0  0  0  0  0  0  0
    2.0700    0.6110   -1.4190 O   0  0  0  0  0  0  0  0  0  0  0  0
    5.7380   -2.1420    0.7780 C   0  0  0  0  0  0  0  0  0  0  0  0
    6.6500   -2.8540    1.6580 C   0  0  0  0  0  0  0  0  0  0  0  0
    7.6320   -2.2820    2.3110 C   0  0  0  0  0  0  0  0  0  0  0  0
    7.8970   -0.8330    2.2030 C   0  0  2  0  0  0  0  0  0  0  0  0
    7.7640   -0.1700    3.8730 Cl  0  0  0  0  0  0  0  0  0  0  0  0
  1  2  2  0
  2  3  1  0
  2 30  1  0
  3  4  1  0
  3 27  2  0
  4  5  1  0
  5  6  1  0
  6  7  2  0
  6 26  1  0
  7  8  1  0
  8  9  2  0
  9 10  1  0
  9 26  1  0
 10 11  2  3
 11 12  1  0
 11 13  1  0
 13 14  2  0
 14 15  1  0
 14 24  1  0
 15 16  1  0
 16 17  1  1
 16 23  1  0
 17 18  1  0
 18 19  2  0
 18 20  1  0
 20 21  1  0
 21 22  1  0
 23 24  1  0
 24 25  2  0
 27 28  1  0
 28 29  2  0
 29 30  1  0
 30 31  1  1
 15 12  1  0
M  END
