
     RDKit          3D

 31 34  0  0  0  0  0  0  0  0999 V2000
   -3.5360    1.3930    1.1930 C   0  0  0  0  0  0  0  0  0  0  0  0
   -2.8970    2.0530   -0.0500 C   0  0  2  0  0  0  0  0  0  0  0  0
   -2.4580    3.3930    0.3830 C   0  0  0  0  0  0  0  0  0  0  0  0
   -3.9940    2.1680   -1.0940 C   0  0  0  0  0  0  0  0  0  0  0  0
   -4.2920    0.6310   -1.8990 S   0  0  0  0  0  0  0  0  0  0  0  0
   -3.1030   -0.6410   -1.3420 C   0  0  0  0  0  0  0  0  0  0  0  0
   -3.4200   -2.0210   -1.7970 C   0  0  0  0  0  0  0  0  0  0  0  0
   -4.4970   -2.5040   -1.1130 O   0  0  0  0  0  0  0  0  0  0  0  0
   -1.9830   -0.2840   -0.7900 C   0  0  0  0  0  0  0  0  0  0  0  0
   -0.9180   -1.0540   -0.2650 N   0  0  0  0  0  0  0  0  0  0  0  0
   -0.6460   -2.3910   -0.0570 C   0  0  0  0  0  0  0  0  0  0  0  0
   -1.6450   -3.1850   -0.3140 O   0  0  0  0  0  0  0  0  0  0  0  0
    0.5410   -3.0900    0.3750 C   0  0  0  0  0  0  0  0  0  0  0  0
    1.7290   -2.6640    0.5570 C   0  0  0  0  0  0  0  0  0  0  0  0
    2.1110   -1.2880    0.3140 C   0  0  0  0  0  0  0  0  0  0  0  0
    3.3750   -0.9360    0.5720 C   0  0  0  0  0  0  0  0  0  0  0  0
    4.6080   -2.1970    1.2300 Br  0  0  0  0  0  0  0  0  0  0  0  0
    3.7990    0.4330    0.3250 C   0  0  0  0  0  0  0  0  0  0  0  0
    5.0680    0.9030    0.5760 C   0  0  0  0  0  0  0  0  0  0  0  0
    5.1210    2.2280    0.2290 C   0  0  0  0  0  0  0  0  0  0  0  0
    3.8500    2.5280   -0.2320 C   0  0  0  0  0  0  0  0  0  0  0  0
    3.4350    3.8670   -0.7230 C   0  0  0  0  0  0  0  0  0  0  0  0
    2.7810    4.8490    0.5990 Cl  0  0  0  0  0  0  0  0  0  0  0  0
    3.1340    1.4350   -0.1470 O   0  0  0  0  0  0  0  0  0  0  0  0
    2.7700   -3.5460    1.0220 O   0  0  0  0  0  0  0  0  0  0  0  0
    2.3830   -4.6400    1.8090 C   0  0  0  0  0  0  0  0  0  0  0  0
    1.3710   -5.3900    0.9520 C   0  0  0  0  0  0  0  0  0  0  0  0
    0.3610   -4.5000    0.6480 O   0  0  0  0  0  0  0  0  0  0  0  0
   -1.7840    1.2240   -0.5960 C   0  0  0  0  0  0  0  0  0  0  0  0
   -0.6080    1.6600   -0.9610 C   0  0  0  0  0  0  0  0  0  0  0  0
   -0.1590    3.3700   -0.8540 S   0  0  0  0  0  0  0  0  0  0  0  0
  2  1  1  1
  2  3  1  0
  2  4  1  0
  2 29  1  0
  4  5  1  0
  5  6  1  0
  6  7  1  0
  6  9  2  0
  7  8  1  0
  9 10  1  0
  9 29  1  0
 10 11  1  0
 11 12  2  0
 11 13  1  0
 13 14  2  0
 13 28  1  0
 14 15  1  0
 14 25  1  0
 15 16  2  0
 16 17  1  0
 16 18  1  0
 18 19  2  0
 18 24  1  0
 19 20  1  0
 20 21  2  0
 21 22  1  0
 21 24  1  0
 22 23  1  0
 25 26  1  0
 26 27  1  0
 27 28  1  0
 29 30  2  3
 30 31  1  0
 25 17  1  0
M  END
