
     RDKit          3D

 31 34  0  0  0  0  0  0  0  0999 V2000
   -6.9730   -0.9770    0.5950 C   0  0  0  0  0  0  0  0  0  0  0  0
   -5.7450   -1.6630    0.5140 O   0  0  0  0  0  0  0  0  0  0  0  0
   -4.5760   -0.9110    0.3820 C   0  0  0  0  0  0  0  0  0  0  0  0
   -4.6520    0.4510    0.3350 C   0  0  0  0  0  0  0  0  0  0  0  0
   -3.5090    1.2820    0.2040 C   0  0  0  0  0  0  0  0  0  0  0  0
   -2.3300    0.6330    0.1280 C   0  0  0  0  0  0  0  0  0  0  0  0
   -2.2250   -0.7710    0.1720 C   0  0  0  0  0  0  0  0  0  0  0  0
   -3.3500   -1.5500    0.3000 C   0  0  0  0  0  0  0  0  0  0  0  0
   -3.3210   -2.9380    0.3500 O   0  0  0  0  0  0  0  0  0  0  0  0
   -3.4040   -3.7800   -0.7590 C   0  0  0  0  0  0  0  0  0  0  0  0
   -0.9830   -1.3690    0.0850 O   0  0  0  0  0  0  0  0  0  0  0  0
    0.1580   -0.7770   -0.5550 C   0  0  0  0  0  0  0  0  0  0  0  0
   -0.2750    0.5530   -1.1030 C   0  0  2  0  0  0  0  0  0  0  0  0
    0.9260    1.4810   -2.0090 S   0  0  0  0  0  0  0  0  0  0  0  0
    2.3520    2.0630   -1.1470 C   0  0  0  0  0  0  0  0  0  0  0  0
    3.2650    0.9050   -0.8360 C   0  0  0  0  0  0  0  0  0  0  0  0
    3.0060   -0.2240   -1.2810 O   0  0  0  0  0  0  0  0  0  0  0  0
    4.3880    1.2200   -0.0280 N   0  0  0  0  0  0  0  0  0  0  0  0
    5.3410    0.2750    0.3590 C   0  0  0  0  0  0  0  0  0  0  0  0
    5.3480   -1.0390    0.0130 C   0  0  0  0  0  0  0  0  0  0  0  0
    6.3620   -1.9080    0.4580 C   0  0  0  0  0  0  0  0  0  0  0  0
    6.3390   -3.2390    0.0870 O   0  0  0  0  0  0  0  0  0  0  0  0
    7.3780   -1.4580    1.2560 C   0  0  0  0  0  0  0  0  0  0  0  0
    8.7700   -2.6250    1.8740 Br  0  0  0  0  0  0  0  0  0  0  0  0
    7.3890   -0.1300    1.6170 C   0  0  0  0  0  0  0  0  0  0  0  0
    6.3900    0.7150    1.1760 C   0  0  0  0  0  0  0  0  0  0  0  0
    6.4360    2.4010    1.6560 Cl  0  0  0  0  0  0  0  0  0  0  0  0
   -0.9660    1.2780   -0.0010 C   0  0  1  0  0  0  0  0  0  0  0  0
   -1.0990    3.0500   -0.1710 S   0  0  0  0  0  0  0  0  0  0  0  0
   -2.6670    3.6150    0.6060 C   0  0  0  0  0  0  0  0  0  0  0  0
   -3.7630    2.7430    0.1350 C   0  0  0  0  0  0  0  0  0  0  0  0
  1  2  1  0
  2  3  1  0
  3  4  2  0
  3  8  1  0
  4  5  1  0
  5  6  2  0
  5 31  1  0
  6  7  1  0
  6 28  1  0
  7  8  2  0
  7 11  1  0
  8  9  1  0
  9 10  1  0
 11 12  1  0
 12 13  1  0
 13 14  1  1
 13 28  1  0
 14 15  1  0
 15 16  1  0
 16 17  2  0
 16 18  1  0
 18 19  1  0
 19 20  2  0
 19 26  1  0
 20 21  1  0
 21 22  1  0
 21 23  2  0
 23 24  1  0
 23 25  1  0
 25 26  2  0
 26 27  1  0
 28 29  1  6
 29 30  1  0
 30 31  1  0
M  END
