
     RDKit          3D

 30 33  0  0  0  0  0  0  0  0999 V2000
   -1.1130    1.2110    2.9630 O   0  0  0  0  0  0  0  0  0  0  0  0
   -0.6180    0.7430    1.9080 C   0  0  0  0  0  0  0  0  0  0  0  0
   -1.5110    0.2740    0.9190 N   0  0  0  0  0  0  0  0  0  0  0  0
   -2.9560    0.3090    1.0670 C   0  0  1  0  0  0  0  0  0  0  0  0
   -3.5860    1.0140   -0.1030 C   0  0  0  0  0  0  0  0  0  0  0  0
   -3.1580    2.1970   -0.6670 C   0  0  0  0  0  0  0  0  0  0  0  0
   -4.0160    2.4810   -1.7090 C   0  0  0  0  0  0  0  0  0  0  0  0
   -4.9360    1.4510   -1.7350 C   0  0  0  0  0  0  0  0  0  0  0  0
   -6.0620    1.3640   -2.7270 C   0  0  0  0  0  0  0  0  0  0  0  0
   -6.7980    0.2140   -2.4820 O   0  0  0  0  0  0  0  0  0  0  0  0
   -4.6390    0.6280   -0.7820 O   0  0  0  0  0  0  0  0  0  0  0  0
   -3.4330   -1.0960    1.0280 C   0  0  0  0  0  0  0  0  0  0  0  0
   -4.3030   -1.7760    1.7690 C   0  0  0  0  0  0  0  0  0  0  0  0
   -4.5700   -3.0680    1.5300 C   0  0  0  0  0  0  0  0  0  0  0  0
   -3.8740   -3.6540    0.4520 C   0  0  0  0  0  0  0  0  0  0  0  0
   -2.8850   -2.2780   -0.1300 S   0  0  0  0  0  0  0  0  0  0  0  0
    0.8460    0.6910    1.7200 C   0  0  0  0  0  0  0  0  0  0  0  0
    1.7590    1.1330    2.6500 C   0  0  0  0  0  0  0  0  0  0  0  0
    2.9910    0.9200    2.1200 C   0  0  0  0  0  0  0  0  0  0  0  0
    2.8070    0.3430    0.8570 C   0  0  0  0  0  0  0  0  0  0  0  0
    3.8320   -0.0580   -0.0780 C   0  0  0  0  0  0  0  0  0  0  0  0
    5.1370    0.0260    0.0420 C   0  0  0  0  0  0  0  0  0  0  0  0
    5.9170   -0.4630   -1.0590 C   0  0  0  0  0  0  0  0  0  0  0  0
    7.0790   -1.0640   -1.0890 C   0  0  0  0  0  0  0  0  0  0  0  0
    7.9450   -1.4260    0.0410 C   0  0  0  0  0  0  0  0  0  0  0  0
    7.3210   -1.0160    1.6280 Cl  0  0  0  0  0  0  0  0  0  0  0  0
    5.1820   -0.2230   -2.3840 C   0  0  2  0  0  0  0  0  0  0  0  0
    5.2020    1.6130   -2.8860 Br  0  0  0  0  0  0  0  0  0  0  0  0
    3.5240   -0.7300   -1.7070 S   0  0  0  0  0  0  0  0  0  0  0  0
    1.5090    0.2440    0.7030 O   0  0  0  0  0  0  0  0  0  0  0  0
  1  2  2  0
  2  3  1  0
  2 17  1  0
  4  3  1  6
  4  5  1  0
  4 12  1  0
  5  6  2  0
  5 11  1  0
  6  7  1  0
  7  8  2  0
  8  9  1  0
  8 11  1  0
  9 10  1  0
 12 13  2  0
 12 16  1  0
 13 14  1  0
 14 15  2  0
 15 16  1  0
 17 18  2  0
 17 30  1  0
 18 19  1  0
 19 20  2  0
 20 21  1  0
 20 30  1  0
 21 22  2  0
 21 29  1  0
 22 23  1  0
 23 24  2  3
 23 27  1  0
 24 25  1  0
 25 26  1  0
 27 28  1  1
 27 29  1  0
M  END
