
     RDKit          3D

 29 30  0  0  0  0  0  0  0  0999 V2000
    9.4490   -0.6490    0.7060 C   0  0  0  0  0  0  0  0  0  0  0  0
    8.5210   -0.8350   -0.4700 C   0  0  0  0  0  0  0  0  0  0  0  0
    7.1630   -0.2880   -0.1890 C   0  0  0  0  0  0  0  0  0  0  0  0
    6.0850   -1.0950    0.1060 C   0  0  0  0  0  0  0  0  0  0  0  0
    4.8320   -0.5760    0.3660 C   0  0  0  0  0  0  0  0  0  0  0  0
    3.7460   -1.4160    0.6650 O   0  0  0  0  0  0  0  0  0  0  0  0
    4.5990    0.7820    0.3410 C   0  0  0  0  0  0  0  0  0  0  0  0
    2.9670    1.4380    0.6770 S   0  0  0  0  0  0  0  0  0  0  0  0
    2.0000    1.5780   -0.8530 C   0  0  0  0  0  0  0  0  0  0  0  0
    1.6990    0.1950   -1.4300 C   0  0  0  0  0  0  0  0  0  0  0  0
    0.9380   -0.5880   -0.4840 N   0  0  0  0  0  0  0  0  0  0  0  0
   -0.4930   -0.4330   -0.6780 C   0  0  1  0  0  0  0  0  0  0  0  0
   -0.9330   -0.9120   -2.0300 C   0  0  0  0  0  0  0  0  0  0  0  0
   -1.2160   -1.1360    0.4450 C   0  0  0  0  0  0  0  0  0  0  0  0
   -2.6670   -0.9710    0.2450 C   0  0  0  0  0  0  0  0  0  0  0  0
   -3.0980   -0.3060   -0.7190 O   0  0  0  0  0  0  0  0  0  0  0  0
   -3.5530   -1.5550    1.1320 O   0  0  0  0  0  0  0  0  0  0  0  0
   -4.9580   -1.4350    1.0000 C   0  0  0  0  0  0  0  0  0  0  0  0
   -5.3100    0.0160    1.0770 C   0  0  0  0  0  0  0  0  0  0  0  0
   -4.3930    0.8670    1.2530 O   0  0  0  0  0  0  0  0  0  0  0  0
   -6.6660    0.3720    0.9470 N   0  0  0  0  0  0  0  0  0  0  0  0
   -7.6730   -0.6310    0.7450 C   0  0  0  0  0  0  0  0  0  0  0  0
   -8.4650   -0.2240   -0.4860 C   0  0  0  0  0  0  0  0  0  0  0  0
   -8.9970    1.1030   -0.2970 N   0  0  0  0  0  0  0  0  0  0  0  0
   -7.9090    2.0410   -0.2060 C   0  0  0  0  0  0  0  0  0  0  0  0
   -7.0500    1.7590    1.0160 C   0  0  0  0  0  0  0  0  0  0  0  0
    5.6690    1.6000    0.0470 C   0  0  0  0  0  0  0  0  0  0  0  0
    6.9300    1.0780   -0.2140 C   0  0  0  0  0  0  0  0  0  0  0  0
    8.0380    1.9030   -0.5180 N   0  0  0  0  0  0  0  0  0  0  0  0
  1  2  1  0
  2  3  1  0
  3  4  2  0
  3 28  1  0
  4  5  1  0
  5  6  1  0
  5  7  2  0
  7  8  1  0
  7 27  1  0
  8  9  1  0
  9 10  1  0
 10 11  1  0
 11 12  1  0
 12 13  1  6
 12 14  1  0
 14 15  1  0
 15 16  2  0
 15 17  1  0
 17 18  1  0
 18 19  1  0
 19 20  2  0
 19 21  1  0
 21 22  1  0
 21 26  1  0
 22 23  1  0
 23 24  1  0
 24 25  1  0
 25 26  1  0
 27 28  2  0
 28 29  1  0
M  CHG  1  11   1
M  END
