
     RDKit          3D

 30 31  0  0  0  0  0  0  0  0999 V2000
   -4.6390   -1.8460   -1.8760 C   0  0  0  0  0  0  0  0  0  0  0  0
   -3.2400   -1.9310   -2.3890 C   0  0  0  0  0  0  0  0  0  0  0  0
   -2.3970   -0.7120   -2.1000 C   0  0  0  0  0  0  0  0  0  0  0  0
   -2.2690   -0.4470   -0.6810 N   0  0  0  0  0  0  0  0  0  0  0  0
   -1.1830   -1.0890   -0.0330 C   0  0  0  0  0  0  0  0  0  0  0  0
   -0.4020   -1.7710   -0.7480 O   0  0  0  0  0  0  0  0  0  0  0  0
   -0.8950   -1.0240    1.4120 C   0  0  0  0  0  0  0  0  0  0  0  0
    0.3240   -1.8030    1.6630 N   0  0  0  0  0  0  0  0  0  0  0  0
    1.5280   -1.3530    1.0270 C   0  0  0  0  0  0  0  0  0  0  0  0
    1.4930   -0.3210    0.3050 O   0  0  0  0  0  0  0  0  0  0  0  0
    2.7690   -2.0190    1.1700 N   0  0  0  0  0  0  0  0  0  0  0  0
    4.0020   -1.6270    0.6080 C   0  0  0  0  0  0  0  0  0  0  0  0
    4.9790   -2.6000    0.4370 C   0  0  0  0  0  0  0  0  0  0  0  0
    6.2150   -2.2940   -0.0820 C   0  0  0  0  0  0  0  0  0  0  0  0
    6.4800   -0.9600   -0.4420 C   0  0  0  0  0  0  0  0  0  0  0  0
    7.7300   -0.6730   -0.9630 O   0  0  0  0  0  0  0  0  0  0  0  0
    5.5500    0.0420   -0.2940 C   0  0  0  0  0  0  0  0  0  0  0  0
    5.7740    1.4200   -0.6500 C   0  0  0  0  0  0  0  0  0  0  0  0
    6.8140    1.9080   -1.1390 N   0  0  0  0  0  0  0  0  0  0  0  0
    4.4210    2.5810   -0.3630 S   0  0  0  0  0  0  0  0  0  0  0  0
    3.9620    3.0280   -1.7550 O   0  0  0  0  0  0  0  0  0  0  0  0
    4.3010   -0.3430    0.2450 C   0  0  0  0  0  0  0  0  0  0  0  0
   -3.1610    0.4010    0.0220 C   0  0  0  0  0  0  0  0  0  0  0  0
   -3.2040    1.7480   -0.2720 C   0  0  0  0  0  0  0  0  0  0  0  0
   -4.0470    2.6230    0.3830 C   0  0  0  0  0  0  0  0  0  0  0  0
   -4.9010    2.1690    1.3860 C   0  0  0  0  0  0  0  0  0  0  0  0
   -5.8030    3.1530    2.0740 C   0  0  0  0  0  0  0  0  0  0  0  0
   -5.9360    4.2430    1.2250 O   0  0  0  0  0  0  0  0  0  0  0  0
   -4.8590    0.8360    1.6780 C   0  0  0  0  0  0  0  0  0  0  0  0
   -4.0060   -0.0440    1.0120 C   0  0  0  0  0  0  0  0  0  0  0  0
  1  2  1  0
  2  3  1  0
  3  4  1  0
  4  5  1  0
  4 23  1  0
  5  6  2  0
  5  7  1  0
  7  8  1  0
  8  9  1  0
  9 10  2  0
  9 11  1  0
 11 12  1  0
 12 13  2  0
 12 22  1  0
 13 14  1  0
 14 15  2  0
 15 16  1  0
 15 17  1  0
 17 18  1  0
 17 22  2  0
 18 19  2  0
 18 20  1  0
 20 21  2  0
 23 24  2  0
 23 30  1  0
 24 25  1  0
 25 26  2  0
 26 27  1  0
 26 29  1  0
 27 28  1  0
 29 30  2  0
M  CHG  1  19   1
M  END
