
     RDKit          3D

 30 32  0  0  0  0  0  0  0  0999 V2000
   -4.8920   -2.0400   -0.1880 C   0  0  0  0  0  0  0  0  0  0  0  0
   -3.4890   -2.4820   -0.1090 C   0  0  0  0  0  0  0  0  0  0  0  0
   -3.1840   -3.7700   -0.0240 C   0  0  0  0  0  0  0  0  0  0  0  0
   -1.9450   -4.5340    0.0680 C   0  0  0  0  0  0  0  0  0  0  0  0
   -0.8200   -4.0250   -0.6490 N   0  0  0  0  0  0  0  0  0  0  0  0
   -0.5130   -2.7020   -1.0780 C   0  0  0  0  0  0  0  0  0  0  0  0
    0.3380   -2.4790   -1.9440 O   0  0  0  0  0  0  0  0  0  0  0  0
   -1.1470   -1.4970   -0.5600 C   0  0  0  0  0  0  0  0  0  0  0  0
   -2.4960   -1.4160   -0.1380 C   0  0  0  0  0  0  0  0  0  0  0  0
   -2.7140   -0.1250    0.2580 C   0  0  0  0  0  0  0  0  0  0  0  0
   -3.9770    0.3930    0.7770 C   0  0  0  0  0  0  0  0  0  0  0  0
   -1.5310    0.5520    0.0810 N   0  0  0  0  0  0  0  0  0  0  0  0
   -1.4840    1.9220    0.4260 C   0  0  0  0  0  0  0  0  0  0  0  0
   -1.6090    2.9090   -0.5260 C   0  0  0  0  0  0  0  0  0  0  0  0
   -1.5900    4.2570   -0.2170 C   0  0  0  0  0  0  0  0  0  0  0  0
   -1.4410    4.6710    1.0900 C   0  0  0  0  0  0  0  0  0  0  0  0
   -1.3160    3.6940    2.0540 C   0  0  0  0  0  0  0  0  0  0  0  0
   -1.3350    2.3530    1.7400 C   0  0  0  0  0  0  0  0  0  0  0  0
   -0.5960   -0.2480   -0.4020 C   0  0  0  0  0  0  0  0  0  0  0  0
    0.8150    0.0480   -0.6950 C   0  0  0  0  0  0  0  0  0  0  0  0
    1.6590   -0.7990   -1.0530 O   0  0  0  0  0  0  0  0  0  0  0  0
    1.3460    1.4480   -0.5760 C   0  0  0  0  0  0  0  0  0  0  0  0
    2.8430    1.4600   -0.7710 C   0  0  0  0  0  0  0  0  0  0  0  0
    3.5780    0.7070    0.2050 N   0  0  0  0  0  0  0  0  0  0  0  0
    4.8850    0.3720   -0.3570 C   0  0  2  0  0  0  0  0  0  0  0  0
    4.8900   -0.9450   -1.0750 C   0  0  0  0  0  0  0  0  0  0  0  0
    5.9090    0.2830    0.7570 C   0  0  1  0  0  0  0  0  0  0  0  0
    6.0270    1.4670    1.4400 F   0  0  0  0  0  0  0  0  0  0  0  0
    5.5520   -0.7140    1.6460 F   0  0  0  0  0  0  0  0  0  0  0  0
    7.1200   -0.0870    0.1990 F   0  0  0  0  0  0  0  0  0  0  0  0
  1  2  1  0
  2  3  2  0
  2  9  1  0
  3  4  1  0
  4  5  1  0
  5  6  1  0
  6  7  2  0
  6  8  1  0
  8  9  1  0
  8 19  2  0
  9 10  2  0
 10 11  1  0
 10 12  1  0
 12 13  1  0
 12 19  1  0
 13 14  2  0
 13 18  1  0
 14 15  1  0
 15 16  2  0
 16 17  1  0
 17 18  2  0
 19 20  1  0
 20 21  2  0
 20 22  1  0
 22 23  1  0
 23 24  1  0
 24 25  1  0
 25 26  1  1
 25 27  1  0
 27 28  1  1
 27 29  1  0
 27 30  1  0
M  CHG  1  24   1
M  END
