
     RDKit          3D

 31 33  0  0  0  0  0  0  0  0999 V2000
   -5.5700    1.8270   -4.6220 C   0  0  0  0  0  0  0  0  0  0  0  0
   -5.6920    1.9750   -3.2300 O   0  0  0  0  0  0  0  0  0  0  0  0
   -4.9940    1.2250   -2.3080 C   0  0  0  0  0  0  0  0  0  0  0  0
   -4.1970    0.3530   -2.7050 O   0  0  0  0  0  0  0  0  0  0  0  0
   -5.2180    1.4850   -0.8750 C   0  0  0  0  0  0  0  0  0  0  0  0
   -4.3070    0.5340   -0.0360 C   0  0  0  0  0  0  0  0  0  0  0  0
   -2.9230    0.7410   -0.2670 C   0  0  0  0  0  0  0  0  0  0  0  0
   -2.5770    1.6800   -1.1340 O   0  0  0  0  0  0  0  0  0  0  0  0
   -1.8440    0.1300    0.2560 O   0  0  0  0  0  0  0  0  0  0  0  0
   -0.5130    0.4170   -0.0460 C   0  0  0  0  0  0  0  0  0  0  0  0
    0.4590   -0.4400    0.7060 C   0  0  0  0  0  0  0  0  0  0  0  0
    1.8480   -0.0720    0.3280 C   0  0  0  0  0  0  0  0  0  0  0  0
    2.0300    0.8340   -0.5040 O   0  0  0  0  0  0  0  0  0  0  0  0
    2.9560   -0.7350    0.8980 N   0  0  0  0  0  0  0  0  0  0  0  0
    4.3170   -0.4870    0.6300 C   0  0  0  0  0  0  0  0  0  0  0  0
    5.2580   -1.2700    1.3120 C   0  0  0  0  0  0  0  0  0  0  0  0
    6.6110   -1.1010    1.1160 C   0  0  0  0  0  0  0  0  0  0  0  0
    7.0930   -0.1440    0.2320 C   0  0  0  0  0  0  0  0  0  0  0  0
    6.1930    0.6250   -0.4380 C   0  0  0  0  0  0  0  0  0  0  0  0
    4.8360    0.4340   -0.2230 C   0  0  0  0  0  0  0  0  0  0  0  0
    6.6710    1.5820   -1.3220 O   0  0  0  0  0  0  0  0  0  0  0  0
    8.0010    2.0770   -1.1040 C   0  0  0  0  0  0  0  0  0  0  0  0
    8.9140    0.8920   -1.0460 C   0  0  0  0  0  0  0  0  0  0  0  0
    8.4490    0.0470    0.0160 O   0  0  0  0  0  0  0  0  0  0  0  0
   -4.9660   -0.2580    0.7090 C   0  0  0  0  0  0  0  0  0  0  0  0
   -6.4270   -0.0770    0.5920 O   0  0  0  0  0  0  0  0  0  0  0  0
   -4.6350   -1.3090    1.6580 C   0  0  0  0  0  0  0  0  0  0  0  0
   -5.5740   -2.0220    2.3410 C   0  0  0  0  0  0  0  0  0  0  0  0
   -4.9070   -2.9920    3.2050 C   0  0  0  0  0  0  0  0  0  0  0  0
   -3.4810   -2.8140    2.9930 C   0  0  0  0  0  0  0  0  0  0  0  0
   -3.3540   -1.8240    2.0850 C   0  0  0  0  0  0  0  0  0  0  0  0
  1  2  1  0
  2  3  1  0
  3  4  2  0
  3  5  1  0
  5  6  1  0
  6  7  1  0
  6 25  2  3
  7  8  2  0
  7  9  1  0
  9 10  1  0
 10 11  1  0
 11 12  1  0
 12 13  2  0
 12 14  1  0
 14 15  1  0
 15 16  2  0
 15 20  1  0
 16 17  1  0
 17 18  2  0
 18 19  1  0
 18 24  1  0
 19 20  2  0
 19 21  1  0
 21 22  1  0
 22 23  1  0
 23 24  1  0
 25 26  1  0
 25 27  1  0
 27 28  2  0
 27 31  1  0
 28 29  1  0
 29 30  1  0
 30 31  2  0
M  END
