
     RDKit          3D

 31 33  0  0  0  0  0  0  0  0999 V2000
   -5.5610    4.8770    0.2700 C   0  0  0  0  0  0  0  0  0  0  0  0
   -4.1870    4.8470    0.6610 O   0  0  0  0  0  0  0  0  0  0  0  0
   -3.4980    3.6670    0.4020 C   0  0  0  0  0  0  0  0  0  0  0  0
   -2.1690    3.5570    0.7480 C   0  0  0  0  0  0  0  0  0  0  0  0
   -1.4420    2.3840    0.5020 C   0  0  0  0  0  0  0  0  0  0  0  0
   -2.0590    1.3200   -0.0970 C   0  0  0  0  0  0  0  0  0  0  0  0
   -1.4110    0.1700   -0.3660 O   0  0  0  0  0  0  0  0  0  0  0  0
   -0.0750   -0.1210   -0.1580 C   0  0  0  0  0  0  0  0  0  0  0  0
    0.9070    0.6680   -0.9890 C   0  0  0  0  0  0  0  0  0  0  0  0
    2.1910    0.3050   -0.6890 O   0  0  0  0  0  0  0  0  0  0  0  0
    2.5400   -1.0010   -0.8980 C   0  0  0  0  0  0  0  0  0  0  0  0
    3.9720   -1.2630   -0.5610 C   0  0  0  0  0  0  0  0  0  0  0  0
    4.4100   -2.4300   -0.7120 O   0  0  0  0  0  0  0  0  0  0  0  0
    4.8540   -0.2780   -0.0840 N   0  0  0  0  0  0  0  0  0  0  0  0
    6.2270   -0.5490    0.2350 C   0  0  0  0  0  0  0  0  0  0  0  0
    7.1660    0.1080   -0.4180 C   0  0  0  0  0  0  0  0  0  0  0  0
    8.6240   -0.0550   -0.2100 C   0  0  0  0  0  0  0  0  0  0  0  0
    8.8800   -0.9990    0.7740 O   0  0  0  0  0  0  0  0  0  0  0  0
    7.8980   -1.6880    1.4600 C   0  0  0  0  0  0  0  0  0  0  0  0
    6.6140   -1.5100    1.2400 C   0  0  0  0  0  0  0  0  0  0  0  0
   -3.4210    1.3980   -0.4640 C   0  0  0  0  0  0  0  0  0  0  0  0
   -4.0270    0.3100   -1.0690 O   0  0  0  0  0  0  0  0  0  0  0  0
   -4.1080   -0.8750   -0.3650 C   0  0  0  0  0  0  0  0  0  0  0  0
   -3.7300   -1.0210    0.9440 C   0  0  0  0  0  0  0  0  0  0  0  0
   -3.8380   -2.2530    1.5930 C   0  0  0  0  0  0  0  0  0  0  0  0
   -4.3300   -3.3610    0.9360 C   0  0  0  0  0  0  0  0  0  0  0  0
   -4.4400   -4.5900    1.5760 O   0  0  0  0  0  0  0  0  0  0  0  0
   -4.7140   -3.2140   -0.3890 C   0  0  0  0  0  0  0  0  0  0  0  0
   -5.2100   -4.3520   -1.0340 O   0  0  0  0  0  0  0  0  0  0  0  0
   -4.6040   -2.0040   -1.0180 C   0  0  0  0  0  0  0  0  0  0  0  0
   -4.0670    2.5710   -0.1940 C   0  0  0  0  0  0  0  0  0  0  0  0
  1  2  1  0
  2  3  1  0
  3  4  2  0
  3 31  1  0
  4  5  1  0
  5  6  2  0
  6  7  1  0
  6 21  1  0
  7  8  1  0
  8  9  1  0
  9 10  1  0
 10 11  1  0
 11 12  1  0
 12 13  2  0
 12 14  1  0
 14 15  1  0
 15 16  2  0
 15 20  1  0
 16 17  1  0
 17 18  1  0
 18 19  1  0
 19 20  2  0
 21 22  1  0
 21 31  2  0
 22 23  1  0
 23 24  2  0
 23 30  1  0
 24 25  1  0
 25 26  2  0
 26 27  1  0
 26 28  1  0
 28 29  1  0
 28 30  2  0
M  END
