
     RDKit          3D

 31 33  0  0  0  0  0  0  0  0999 V2000
    0.8120   -6.6760   -1.9810 C   0  0  0  0  0  0  0  0  0  0  0  0
    0.1800   -5.9120   -0.9730 O   0  0  0  0  0  0  0  0  0  0  0  0
    0.2240   -4.5090   -1.0060 C   0  0  0  0  0  0  0  0  0  0  0  0
   -0.7080   -3.8260   -0.4240 C   0  0  0  0  0  0  0  0  0  0  0  0
   -0.6790   -2.3440   -0.4480 C   0  0  0  0  0  0  0  0  0  0  0  0
   -1.7510   -1.6300    0.2190 C   0  0  0  0  0  0  0  0  0  0  0  0
   -2.6440   -2.3620    0.7860 O   0  0  0  0  0  0  0  0  0  0  0  0
   -1.9690   -0.2640    0.3440 N   0  0  0  0  0  0  0  0  0  0  0  0
   -3.0400    0.3950    1.0230 C   0  0  0  0  0  0  0  0  0  0  0  0
   -3.8540   -0.1740    1.9540 C   0  0  0  0  0  0  0  0  0  0  0  0
   -4.8960    0.5640    2.5400 C   0  0  0  0  0  0  0  0  0  0  0  0
   -5.1500    1.8750    2.2150 C   0  0  0  0  0  0  0  0  0  0  0  0
   -6.1820    2.6010    2.7970 O   0  0  0  0  0  0  0  0  0  0  0  0
   -4.3310    2.4570    1.2760 C   0  0  0  0  0  0  0  0  0  0  0  0
   -4.5420    3.8920    0.8650 C   0  0  0  0  0  0  0  0  0  0  0  0
   -3.6030    4.2440   -0.0820 O   0  0  0  0  0  0  0  0  0  0  0  0
   -3.3140    1.7370    0.7040 C   0  0  0  0  0  0  0  0  0  0  0  0
    0.3230   -1.7770   -1.0800 C   0  0  0  0  0  0  0  0  0  0  0  0
    0.3910   -0.3790   -1.1270 O   0  0  0  0  0  0  0  0  0  0  0  0
    1.5040    0.3260   -0.7050 C   0  0  0  0  0  0  0  0  0  0  0  0
    2.5830   -0.3640   -0.2180 C   0  0  0  0  0  0  0  0  0  0  0  0
    3.6810    0.4050    0.1930 C   0  0  0  0  0  0  0  0  0  0  0  0
    3.6350    1.7770    0.0950 C   0  0  0  0  0  0  0  0  0  0  0  0
    4.7310    2.5140    0.5070 O   0  0  0  0  0  0  0  0  0  0  0  0
    5.7680    2.8460   -0.3550 C   0  0  0  0  0  0  0  0  0  0  0  0
    6.8900    3.6370    0.1970 C   0  0  0  0  0  0  0  0  0  0  0  0
    5.7470    2.4860   -1.5530 O   0  0  0  0  0  0  0  0  0  0  0  0
    2.5430    2.4530   -0.3970 C   0  0  0  0  0  0  0  0  0  0  0  0
    1.4480    1.7060   -0.8080 C   0  0  0  0  0  0  0  0  0  0  0  0
    1.3390   -2.5060   -1.7190 O   0  0  0  0  0  0  0  0  0  0  0  0
    1.3490   -3.9000   -1.7160 C   0  0  0  0  0  0  0  0  0  0  0  0
  1  2  1  0
  2  3  1  0
  3  4  2  0
  3 31  1  0
  4  5  1  0
  5  6  1  0
  5 18  2  0
  6  7  2  0
  6  8  1  0
  8  9  1  0
  9 10  2  0
  9 17  1  0
 10 11  1  0
 11 12  2  0
 12 13  1  0
 12 14  1  0
 14 15  1  0
 14 17  2  0
 15 16  1  0
 18 19  1  0
 18 30  1  0
 19 20  1  0
 20 21  2  0
 20 29  1  0
 21 22  1  0
 22 23  2  0
 23 24  1  0
 23 28  1  0
 24 25  1  0
 25 26  1  0
 25 27  2  0
 28 29  2  0
 30 31  1  0
M  END
