
     RDKit          3D

 30 32  0  0  0  0  0  0  0  0999 V2000
   -6.2160    1.9360   -0.2750 C   0  0  0  0  0  0  0  0  0  0  0  0
   -5.0640    1.4460    0.0510 C   0  0  0  0  0  0  0  0  0  0  0  0
   -4.1210    2.1440    0.8310 O   0  0  0  0  0  0  0  0  0  0  0  0
   -2.8510    1.5330    0.9430 C   0  0  0  0  0  0  0  0  0  0  0  0
   -2.3550    0.9310   -0.3420 C   0  0  1  0  0  0  0  0  0  0  0  0
   -1.0610    0.3060   -0.0670 N   0  0  0  0  0  0  0  0  0  0  0  0
   -0.2280    1.2540    0.6290 C   0  0  0  0  0  0  0  0  0  0  0  0
    1.2130    0.8710    0.6160 C   0  0  0  0  0  0  0  0  0  0  0  0
    1.6230   -0.3380    0.1000 C   0  0  0  0  0  0  0  0  0  0  0  0
    2.9800   -0.6860    0.0930 C   0  0  0  0  0  0  0  0  0  0  0  0
    3.9450    0.1600    0.5980 C   0  0  0  0  0  0  0  0  0  0  0  0
    5.3620   -0.1590    0.6110 C   0  0  0  0  0  0  0  0  0  0  0  0
    5.8420   -1.3660    0.0980 C   0  0  0  0  0  0  0  0  0  0  0  0
    7.2000   -1.6230    0.1340 C   0  0  0  0  0  0  0  0  0  0  0  0
    7.7610   -2.9080   -0.4060 C   0  0  0  0  0  0  0  0  0  0  0  0
    8.0870   -0.7570    0.6430 N   0  0  0  0  0  0  0  0  0  0  0  0
    7.6140    0.3920    1.1290 C   0  0  0  0  0  0  0  0  0  0  0  0
    8.4100    1.2260    1.6130 O   0  0  0  0  0  0  0  0  0  0  0  0
    6.2860    0.6640    1.1040 N   0  0  0  0  0  0  0  0  0  0  0  0
    3.5170    1.3660    1.1110 C   0  0  0  0  0  0  0  0  0  0  0  0
    2.1660    1.7080    1.1150 C   0  0  0  0  0  0  0  0  0  0  0  0
   -3.3090   -0.0140   -0.9840 C   0  0  1  0  0  0  0  0  0  0  0  0
   -3.3770    0.2960   -2.4660 C   0  0  0  0  0  0  0  0  0  0  0  0
   -2.8990   -1.4540   -0.8670 C   0  0  0  0  0  0  0  0  0  0  0  0
   -4.6940    0.1170   -0.3890 C   0  0  0  0  0  0  0  0  0  0  0  0
   -5.4970   -0.8920   -0.2610 C   0  0  0  0  0  0  0  0  0  0  0  0
   -6.8330   -0.9650    0.2960 C   0  0  1  0  0  0  0  0  0  0  0  0
   -7.8540   -1.0200   -0.6600 F   0  0  0  0  0  0  0  0  0  0  0  0
   -6.9830   -2.2130    0.9500 F   0  0  0  0  0  0  0  0  0  0  0  0
   -7.1070   -0.0630    1.3070 F   0  0  0  0  0  0  0  0  0  0  0  0
  1  2  2  0
  2  3  1  0
  2 25  1  0
  3  4  1  0
  4  5  1  0
  5  6  1  1
  5 22  1  0
  6  7  1  0
  7  8  1  0
  8  9  2  0
  8 21  1  0
  9 10  1  0
 10 11  2  0
 11 12  1  0
 11 20  1  0
 12 13  2  0
 12 19  1  0
 13 14  1  0
 14 15  1  0
 14 16  2  0
 16 17  1  0
 17 18  2  0
 17 19  1  0
 20 21  2  0
 22 23  1  6
 22 24  1  0
 22 25  1  0
 25 26  2  3
 26 27  1  0
 27 28  1  6
 27 29  1  0
 27 30  1  0
M  CHG  1   6   1
M  END
