
     RDKit          3D

 30 32  0  0  0  0  0  0  0  0999 V2000
   -1.3380   -4.7420    2.5610 C   0  0  0  0  0  0  0  0  0  0  0  0
   -0.5060   -3.5480    2.1730 C   0  0  0  0  0  0  0  0  0  0  0  0
    0.6220   -3.2040    2.8740 C   0  0  0  0  0  0  0  0  0  0  0  0
    1.3630   -2.1150    2.5010 C   0  0  0  0  0  0  0  0  0  0  0  0
    1.0180   -1.2980    1.3960 C   0  0  0  0  0  0  0  0  0  0  0  0
    1.8840   -0.2440    1.0570 N   0  0  0  0  0  0  0  0  0  0  0  0
    2.1150    0.8480    1.9780 C   0  0  0  0  0  0  0  0  0  0  0  0
    3.5710    1.3210    1.9610 C   0  0  0  0  0  0  0  0  0  0  0  0
    3.8400    2.2000    0.7330 C   0  0  0  0  0  0  0  0  0  0  0  0
    4.4400    1.2350   -0.2590 C   0  0  0  0  0  0  0  0  0  0  0  0
    5.6330    1.5750   -0.7690 F   0  0  0  0  0  0  0  0  0  0  0  0
    3.8680    0.0900   -0.6510 C   0  0  0  0  0  0  0  0  0  0  0  0
    4.6420   -0.6550   -1.5980 C   0  0  0  0  0  0  0  0  0  0  0  0
    4.4360   -1.7950   -2.1640 C   0  0  0  0  0  0  0  0  0  0  0  0
    5.3430   -2.3060   -3.0570 F   0  0  0  0  0  0  0  0  0  0  0  0
    3.3920   -2.5950   -1.9150 F   0  0  0  0  0  0  0  0  0  0  0  0
    2.5420   -0.3830   -0.2220 C   0  0  0  0  0  0  0  0  0  0  0  0
    1.9100   -0.9890   -1.1070 O   0  0  0  0  0  0  0  0  0  0  0  0
   -0.0890   -1.6460    0.7230 C   0  0  0  0  0  0  0  0  0  0  0  0
   -0.6530   -0.8850   -0.3780 C   0  0  0  0  0  0  0  0  0  0  0  0
   -1.1380   -1.5250   -1.3370 O   0  0  0  0  0  0  0  0  0  0  0  0
   -0.6690    0.5120   -0.3800 N   0  0  0  0  0  0  0  0  0  0  0  0
   -1.1770    1.4060   -1.3490 C   0  0  0  0  0  0  0  0  0  0  0  0
   -2.6250    1.4160   -1.6400 C   0  0  1  0  0  0  0  0  0  0  0  0
   -3.2460    0.1900   -2.1850 C   0  0  0  0  0  0  0  0  0  0  0  0
   -3.4350    1.7980   -0.3850 C   0  0  0  0  0  0  0  0  0  0  0  0
   -4.7430    2.2030   -1.0470 C   0  0  0  0  0  0  0  0  0  0  0  0
   -4.3140    2.7730   -2.3670 C   0  0  0  0  0  0  0  0  0  0  0  0
   -2.9150    2.5410   -2.5190 N   0  0  0  0  0  0  0  0  0  0  0  0
   -0.8620   -2.7770    1.1040 C   0  0  0  0  0  0  0  0  0  0  0  0
  1  2  1  0
  2  3  2  0
  2 30  1  0
  3  4  1  0
  4  5  2  0
  5  6  1  0
  5 19  1  0
  6  7  1  0
  6 17  1  0
  7  8  1  0
  8  9  1  0
  9 10  1  0
 10 11  1  0
 10 12  2  0
 12 13  1  0
 12 17  1  0
 13 14  2  3
 14 15  1  0
 14 16  1  0
 17 18  2  0
 19 20  1  0
 19 30  2  0
 20 21  2  0
 20 22  1  0
 22 23  1  0
 23 24  1  0
 24 25  1  6
 24 26  1  0
 24 29  1  0
 26 27  1  0
 27 28  1  0
 28 29  1  0
M  CHG  1  29   1
M  END
