
     RDKit          3D

 30 32  0  0  0  0  0  0  0  0999 V2000
    2.5070   -2.2220    1.1200 C   0  0  0  0  0  0  0  0  0  0  0  0
    2.7120   -0.9410    0.8210 C   0  0  0  0  0  0  0  0  0  0  0  0
    3.9410   -0.3850    0.2030 C   0  0  0  0  0  0  0  0  0  0  0  0
    4.9510   -1.1060   -0.2150 C   0  0  0  0  0  0  0  0  0  0  0  0
    6.1760   -0.6370   -0.8250 C   0  0  0  0  0  0  0  0  0  0  0  0
    6.4990    0.7540   -1.0910 C   0  0  0  0  0  0  0  0  0  0  0  0
    7.8980    1.0110   -1.6210 C   0  0  0  0  0  0  0  0  0  0  0  0
    7.0700   -1.5910   -1.1580 C   0  0  0  0  0  0  0  0  0  0  0  0
    6.8060   -2.9170   -0.9190 F   0  0  0  0  0  0  0  0  0  0  0  0
    8.2440   -1.3310   -1.7360 F   0  0  0  0  0  0  0  0  0  0  0  0
    3.7950    1.0690    0.1770 C   0  0  0  0  0  0  0  0  0  0  0  0
    2.3690    1.2880    0.6120 C   0  0  0  0  0  0  0  0  0  0  0  0
    1.7570    2.4070    0.5870 O   0  0  0  0  0  0  0  0  0  0  0  0
    1.7810    0.0910    1.0570 N   0  0  0  0  0  0  0  0  0  0  0  0
    0.4770   -0.0890    1.6420 C   0  0  0  0  0  0  0  0  0  0  0  0
   -0.6500   -0.0310    0.8710 C   0  0  0  0  0  0  0  0  0  0  0  0
   -1.9430   -0.1830    1.3640 C   0  0  0  0  0  0  0  0  0  0  0  0
   -3.0500   -0.0870    0.4900 N   0  0  0  0  0  0  0  0  0  0  0  0
   -4.3820   -0.4180    0.7160 C   0  0  0  0  0  0  0  0  0  0  0  0
   -4.6760   -0.8860    1.8800 O   0  0  0  0  0  0  0  0  0  0  0  0
   -5.4900   -0.2740   -0.2700 C   0  0  2  0  0  0  0  0  0  0  0  0
   -5.2540   -1.2190   -1.4090 C   0  0  0  0  0  0  0  0  0  0  0  0
   -5.6310   -0.4840   -2.6530 C   0  0  0  0  0  0  0  0  0  0  0  0
   -6.0460    0.8180   -2.2590 N   0  0  0  0  0  0  0  0  0  0  0  0
   -5.4240    1.0750   -0.9670 C   0  0  1  0  0  0  0  0  0  0  0  0
   -6.2580    2.0480   -0.1760 C   0  0  0  0  0  0  0  0  0  0  0  0
   -2.1080   -0.4050    2.7050 C   0  0  0  0  0  0  0  0  0  0  0  0
   -0.9690   -0.4710    3.5240 C   0  0  0  0  0  0  0  0  0  0  0  0
    0.2850   -0.3140    2.9870 C   0  0  0  0  0  0  0  0  0  0  0  0
    1.3670   -0.3800    3.7850 F   0  0  0  0  0  0  0  0  0  0  0  0
  1  2  2  0
  2  3  1  0
  2 14  1  0
  3  4  2  3
  3 11  1  0
  4  5  1  0
  5  6  1  0
  5  8  2  3
  6  7  1  0
  8  9  1  0
  8 10  1  0
 11 12  1  0
 12 13  2  0
 12 14  1  0
 14 15  1  0
 15 16  2  0
 15 29  1  0
 16 17  1  0
 17 18  1  0
 17 27  2  0
 18 19  1  0
 19 20  2  0
 21 19  1  1
 21 22  1  0
 21 25  1  0
 22 23  1  0
 23 24  1  0
 24 25  1  0
 25 26  1  1
 27 28  1  0
 28 29  2  0
 29 30  1  0
M  CHG  1  24   1
M  END
