
     RDKit          3D

 30 32  0  0  0  0  0  0  0  0999 V2000
    2.2400   -1.6900   -2.9740 C   0  0  0  0  0  0  0  0  0  0  0  0
    3.1330   -1.4580   -1.7900 C   0  0  0  0  0  0  0  0  0  0  0  0
    4.0260   -2.2770   -1.2570 N   0  0  0  0  0  0  0  0  0  0  0  0
    4.6230   -1.7350   -0.1990 C   0  0  0  0  0  0  0  0  0  0  0  0
    5.6050   -2.4220    0.6600 C   0  0  0  0  0  0  0  0  0  0  0  0
    4.0930   -0.4280    0.0030 C   0  0  0  0  0  0  0  0  0  0  0  0
    4.7090    0.5190    0.9190 C   0  0  0  0  0  0  0  0  0  0  0  0
    4.2020    1.4450    1.8650 C   0  0  0  0  0  0  0  0  0  0  0  0
    3.0350    1.7770    2.3070 C   0  0  0  0  0  0  0  0  0  0  0  0
    2.9310    2.7800    3.2800 F   0  0  0  0  0  0  0  0  0  0  0  0
    6.0810    0.5690    0.8010 C   0  0  0  0  0  0  0  0  0  0  0  0
    6.8130    1.3770    1.5800 F   0  0  0  0  0  0  0  0  0  0  0  0
    6.6780   -0.1410   -0.1370 F   0  0  0  0  0  0  0  0  0  0  0  0
    3.1620   -0.2830   -0.9890 C   0  0  0  0  0  0  0  0  0  0  0  0
    2.3300    0.8650   -1.3640 C   0  0  0  0  0  0  0  0  0  0  0  0
    1.0950    0.9750   -0.5650 N   0  0  0  0  0  0  0  0  0  0  0  0
    0.8120   -0.2200    0.1290 C   0  0  0  0  0  0  0  0  0  0  0  0
   -0.6870   -0.5620    0.0370 C   0  0  0  0  0  0  0  0  0  0  0  0
   -1.5190    0.4680    0.6490 C   0  0  0  0  0  0  0  0  0  0  0  0
   -0.8080    1.3950    1.2540 O   0  0  0  0  0  0  0  0  0  0  0  0
   -2.8930    0.6500    0.7060 N   0  0  0  0  0  0  0  0  0  0  0  0
   -3.2750    1.9050    1.4310 C   0  0  0  0  0  0  0  0  0  0  0  0
   -4.0580    2.7750    0.4600 C   0  0  0  0  0  0  0  0  0  0  0  0
   -5.1810    2.1320   -0.0090 O   0  0  0  0  0  0  0  0  0  0  0  0
   -5.7880    1.2970    0.8910 C   0  0  0  0  0  0  0  0  0  0  0  0
   -5.1650   -0.0530    0.9940 C   0  0  0  0  0  0  0  0  0  0  0  0
   -3.8780   -0.2100    0.1690 C   0  0  1  0  0  0  0  0  0  0  0  0
   -4.1110   -0.1200   -1.3230 C   0  0  0  0  0  0  0  0  0  0  0  0
   -4.5680   -1.5750   -1.2440 C   0  0  0  0  0  0  0  0  0  0  0  0
   -3.6330   -1.6730   -0.0170 C   0  0  0  0  0  0  0  0  0  0  0  0
  1  2  1  0
  2  3  1  0
  2 14  2  0
  3  4  1  0
  4  5  1  0
  4  6  2  0
  6  7  1  0
  6 14  1  0
  7  8  1  0
  7 11  2  3
  8  9  2  3
  9 10  1  0
 11 12  1  0
 11 13  1  0
 14 15  1  0
 15 16  1  0
 16 17  1  0
 17 18  1  0
 18 19  1  0
 19 20  2  0
 19 21  1  0
 21 22  1  0
 21 27  1  0
 22 23  1  0
 23 24  1  0
 24 25  1  0
 25 26  1  0
 27 26  1  1
 27 28  1  0
 27 30  1  0
 28 29  1  0
 29 30  1  0
M  CHG  1  16   1
M  END
