
     RDKit          3D

 17 17  0  0  0  0  0  0  0  0999 V2000
   -4.8150    1.1590    1.2240 C   0  0  0  0  0  0  0  0  0  0  0  0
   -5.3510    0.2770    0.2450 N   0  0  0  0  0  0  0  0  0  0  0  0
   -4.5820   -0.7920   -0.1240 N   0  0  0  0  0  0  0  0  0  0  0  0
   -3.2340   -0.6370   -0.5460 C   0  0  0  0  0  0  0  0  0  0  0  0
   -2.7430    0.5030   -0.5780 O   0  0  0  0  0  0  0  0  0  0  0  0
   -2.4550   -1.8230   -0.9360 C   0  0  0  0  0  0  0  0  0  0  0  0
   -0.7680   -1.4240   -1.4160 S   0  0  0  0  0  0  0  0  0  0  0  0
    0.1750   -0.8200   -0.0310 C   0  0  0  0  0  0  0  0  0  0  0  0
   -0.3800   -0.7360    1.0840 O   0  0  0  0  0  0  0  0  0  0  0  0
    1.5310   -0.4450   -0.2200 N   0  0  0  0  0  0  0  0  0  0  0  0
    2.3270    0.0340    0.8590 C   0  0  0  0  0  0  0  0  0  0  0  0
    1.7820    0.1200    1.9870 O   0  0  0  0  0  0  0  0  0  0  0  0
    3.7260    0.4060    0.6310 C   0  0  0  0  0  0  0  0  0  0  0  0
    4.3690    0.3470   -0.5200 C   0  0  0  0  0  0  0  0  0  0  0  0
    5.7190    0.7820   -0.3920 N   0  0  0  0  0  0  0  0  0  0  0  0
    5.8010    1.1090    0.9880 C   0  0  0  0  0  0  0  0  0  0  0  0
    4.6720    0.8950    1.5640 N   0  0  0  0  0  0  0  0  0  0  0  0
  1  2  1  0
  2  3  1  0
  3  4  1  0
  4  5  2  0
  4  6  1  0
  6  7  1  0
  7  8  1  0
  8  9  2  0
  8 10  1  0
 10 11  1  0
 11 12  2  0
 11 13  1  0
 13 14  2  0
 13 17  1  0
 14 15  1  0
 15 16  1  0
 16 17  2  0
M  CHG  1  15   1
M  END
