
     RDKit          3D

 16 17  0  0  0  0  0  0  0  0999 V2000
   -3.3060   -1.5890   -1.0420 N   0  0  0  0  0  0  0  0  0  0  0  0
   -2.5550   -1.3670    0.1400 C   0  0  0  0  0  0  0  0  0  0  0  0
   -2.1190   -2.3120    0.8250 O   0  0  0  0  0  0  0  0  0  0  0  0
   -2.2860    0.0170    0.5680 C   0  0  1  0  0  0  0  0  0  0  0  0
   -0.8100    0.2930    0.7330 C   0  0  0  0  0  0  0  0  0  0  0  0
   -0.2410    0.9360   -0.4250 N   0  0  0  0  0  0  0  0  0  0  0  0
    1.1440    1.2050   -0.2430 C   0  0  0  0  0  0  0  0  0  0  0  0
    1.9740   -0.0080   -0.0390 C   0  0  0  0  0  0  0  0  0  0  0  0
    1.8250   -1.2940   -0.2660 N   0  0  0  0  0  0  0  0  0  0  0  0
    2.7970   -2.0780    0.0610 N   0  0  0  0  0  0  0  0  0  0  0  0
    3.8370   -1.8060    0.5500 C   0  0  0  0  0  0  0  0  0  0  0  0
    5.0830   -2.3350    1.0290 N   0  0  0  0  0  0  0  0  0  0  0  0
    3.5780    0.0770    0.6740 S   0  0  0  0  0  0  0  0  0  0  0  0
   -0.9320    2.1970   -0.6330 C   0  0  0  0  0  0  0  0  0  0  0  0
   -2.3420    2.1580   -0.0860 C   0  0  0  0  0  0  0  0  0  0  0  0
   -2.8610    0.8900   -0.3350 O   0  0  0  0  0  0  0  0  0  0  0  0
  1  2  1  0
  2  3  2  0
  4  2  1  6
  4  5  1  0
  4 16  1  0
  5  6  1  0
  6  7  1  0
  6 14  1  0
  7  8  1  0
  8  9  2  0
  8 13  1  0
  9 10  1  0
 10 11  2  0
 11 12  1  0
 11 13  1  0
 14 15  1  0
 15 16  1  0
M  CHG  1   9   1
M  END
