
     RDKit          3D

 21 22  0  0  0  0  0  0  0  0999 V2000
   -0.5270    3.7040    0.9790 O   0  0  0  0  0  0  0  0  0  0  0  0
   -1.6250    3.2720    1.3440 C   0  0  0  0  0  0  0  0  0  0  0  0
   -2.0710    3.7910    2.5840 O   0  0  0  0  0  0  0  0  0  0  0  0
   -2.4020    2.3150    0.5780 C   0  0  0  0  0  0  0  0  0  0  0  0
   -1.7130    1.7090   -0.9540 S   0  0  0  0  0  0  0  0  0  0  0  0
   -0.2800    0.7060   -0.7200 C   0  0  0  0  0  0  0  0  0  0  0  0
   -0.4920   -0.6420   -0.3770 C   0  0  0  0  0  0  0  0  0  0  0  0
   -1.7900   -1.1200   -0.1970 N   0  0  0  0  0  0  0  0  0  0  0  0
   -2.1700   -2.4240    0.1380 C   0  0  0  0  0  0  0  0  0  0  0  0
   -1.3110   -3.3200    0.3130 O   0  0  0  0  0  0  0  0  0  0  0  0
   -3.6250   -2.7960    0.3010 C   0  0  0  0  0  0  0  0  0  0  0  0
   -4.3960   -1.6700    0.0600 O   0  0  0  0  0  0  0  0  0  0  0  0
    0.6160   -1.4210   -0.2400 C   0  0  0  0  0  0  0  0  0  0  0  0
    1.9150   -0.9040   -0.4310 C   0  0  0  0  0  0  0  0  0  0  0  0
    2.1210    0.4070   -0.7650 C   0  0  0  0  0  0  0  0  0  0  0  0
    0.9780    1.1880   -0.9030 C   0  0  0  0  0  0  0  0  0  0  0  0
    1.3080    2.8500   -1.4280 Cl  0  0  0  0  0  0  0  0  0  0  0  0
    3.4370    0.9080   -0.9500 N   0  0  0  0  0  0  0  0  0  0  0  0
    4.5090    0.1160   -0.3760 C   0  0  0  0  0  0  0  0  0  0  0  0
    4.2730   -1.3120   -0.8490 C   0  0  0  0  0  0  0  0  0  0  0  0
    3.0240   -1.7300   -0.2800 O   0  0  0  0  0  0  0  0  0  0  0  0
  1  2  2  0
  2  3  1  0
  2  4  1  0
  4  5  1  0
  5  6  1  0
  6  7  2  0
  6 16  1  0
  7  8  1  0
  7 13  1  0
  8  9  1  0
  9 10  2  0
  9 11  1  0
 11 12  1  0
 13 14  2  0
 14 15  1  0
 14 21  1  0
 15 16  2  0
 15 18  1  0
 16 17  1  0
 18 19  1  0
 19 20  1  0
 20 21  1  0
M  END
