
     RDKit          3D

 21 22  0  0  0  0  0  0  0  0999 V2000
    2.2920    3.3930   -0.1360 C   0  0  0  0  0  0  0  0  0  0  0  0
    1.9990    2.1420    0.3700 O   0  0  0  0  0  0  0  0  0  0  0  0
    2.2380    0.8670    0.1260 C   0  0  0  0  0  0  0  0  0  0  0  0
    1.4460    0.1050   -0.6470 C   0  0  0  0  0  0  0  0  0  0  0  0
   -0.0740    0.8890   -1.1830 S   0  0  0  0  0  0  0  0  0  0  0  0
   -1.5000   -0.0320   -0.5660 C   0  0  0  0  0  0  0  0  0  0  0  0
   -2.7030    0.4530   -0.7230 N   0  0  0  0  0  0  0  0  0  0  0  0
   -3.7860   -0.2820   -0.3130 C   0  0  0  0  0  0  0  0  0  0  0  0
   -5.1820    0.1470   -0.6590 C   0  0  0  0  0  0  0  0  0  0  0  0
   -5.4170    1.2590    0.1830 O   0  0  0  0  0  0  0  0  0  0  0  0
   -3.6810   -1.5260    0.2710 C   0  0  0  0  0  0  0  0  0  0  0  0
   -5.1050   -2.3400    0.8650 Cl  0  0  0  0  0  0  0  0  0  0  0  0
   -2.4000   -2.0060    0.4140 C   0  0  0  0  0  0  0  0  0  0  0  0
   -2.2370   -3.1670    0.9380 O   0  0  0  0  0  0  0  0  0  0  0  0
   -1.3620   -1.2640    0.0060 N   0  0  0  0  0  0  0  0  0  0  0  0
    1.7060   -1.2140   -0.9480 C   0  0  0  0  0  0  0  0  0  0  0  0
    2.8420   -1.8090   -0.4330 C   0  0  0  0  0  0  0  0  0  0  0  0
    3.7100   -1.0590    0.3890 C   0  0  0  0  0  0  0  0  0  0  0  0
    4.8670   -1.6010    0.9140 O   0  0  0  0  0  0  0  0  0  0  0  0
    3.4180    0.2360    0.6700 C   0  0  0  0  0  0  0  0  0  0  0  0
    4.1970    1.0500    1.4770 O   0  0  0  0  0  0  0  0  0  0  0  0
  1  2  1  0
  2  3  1  0
  3  4  2  0
  3 20  1  0
  4  5  1  0
  4 16  1  0
  5  6  1  0
  6  7  2  0
  6 15  1  0
  7  8  1  0
  8  9  1  0
  8 11  2  0
  9 10  1  0
 11 12  1  0
 11 13  1  0
 13 14  2  0
 13 15  1  0
 16 17  2  0
 17 18  1  0
 18 19  1  0
 18 20  2  0
 20 21  1  0
M  END
