
     RDKit          3D

 17 18  0  0  0  0  0  0  0  0999 V2000
    6.9800   -0.1030    0.2840 C   0  0  0  0  0  0  0  0  0  0  0  0
    5.5340    0.1550    0.0360 C   0  0  0  0  0  0  0  0  0  0  0  0
    4.7540    0.9360   -0.3120 N   0  0  0  0  0  0  0  0  0  0  0  0
    3.4720    0.7570   -0.3960 N   0  0  0  0  0  0  0  0  0  0  0  0
    2.8910   -0.2170   -0.1350 C   0  0  0  0  0  0  0  0  0  0  0  0
    1.5770   -0.7550   -0.1010 N   0  0  0  0  0  0  0  0  0  0  0  0
    0.5050    0.0700   -0.4970 C   0  0  0  0  0  0  0  0  0  0  0  0
    0.7680    1.2560   -0.8640 O   0  0  0  0  0  0  0  0  0  0  0  0
   -0.8350   -0.4110   -0.4860 N   0  0  0  0  0  0  0  0  0  0  0  0
   -1.7130    0.6990   -0.2690 C   0  0  0  0  0  0  0  0  0  0  0  0
   -3.1430    0.2100   -0.2970 C   0  0  1  0  0  0  0  0  0  0  0  0
   -3.4930   -0.3780   -1.4980 O   0  0  0  0  0  0  0  0  0  0  0  0
   -3.4380   -0.7090    0.8710 C   0  0  0  0  0  0  0  0  0  0  0  0
   -4.8610   -0.4660    1.0360 N   0  0  0  0  0  0  0  0  0  0  0  0
   -5.0750    0.8300    0.8530 O   0  0  0  0  0  0  0  0  0  0  0  0
   -4.1100    1.3490    0.0330 C   0  0  0  0  0  0  0  0  0  0  0  0
    4.3450   -1.3110    0.3930 S   0  0  0  0  0  0  0  0  0  0  0  0
  1  2  1  0
  2  3  2  0
  2 17  1  0
  3  4  1  0
  4  5  2  0
  5  6  1  0
  5 17  1  0
  6  7  1  0
  7  8  2  0
  7  9  1  0
  9 10  1  0
 10 11  1  0
 11 12  1  6
 11 13  1  0
 11 16  1  0
 13 14  1  0
 14 15  1  0
 15 16  1  0
M  CHG  1   9   1
M  END
