
     RDKit          3D

 21 22  0  0  0  0  0  0  0  0999 V2000
   -3.6860    0.2830    2.2840 C   0  0  0  0  0  0  0  0  0  0  0  0
   -3.3210   -0.8560    1.6200 O   0  0  0  0  0  0  0  0  0  0  0  0
   -2.2060   -0.8130    0.8550 C   0  0  0  0  0  0  0  0  0  0  0  0
   -2.2690    0.0650   -0.3390 C   0  0  0  0  0  0  0  0  0  0  0  0
   -3.2300    0.7930   -0.8820 N   0  0  0  0  0  0  0  0  0  0  0  0
   -2.7530    1.3740   -1.9890 N   0  0  0  0  0  0  0  0  0  0  0  0
   -1.4820    1.0390   -2.1900 C   0  0  0  0  0  0  0  0  0  0  0  0
   -0.7680    1.4300   -3.1490 O   0  0  0  0  0  0  0  0  0  0  0  0
   -1.1300    0.2020   -1.1580 C   0  0  0  0  0  0  0  0  0  0  0  0
    0.1840   -0.4060   -0.9870 C   0  0  0  0  0  0  0  0  0  0  0  0
    1.1680    0.2300   -0.2630 C   0  0  0  0  0  0  0  0  0  0  0  0
    2.4220   -0.2760   -0.0580 C   0  0  0  0  0  0  0  0  0  0  0  0
    3.5000    0.3650    0.7050 C   0  0  0  0  0  0  0  0  0  0  0  0
    3.1070    1.9180    1.4020 S   0  0  2  0  0  0  0  0  0  0  0  0
    4.3930    2.7340    1.4460 O   0  0  0  0  0  0  0  0  0  0  0  0
    2.6330    1.8320    2.8230 O   0  0  0  0  0  0  0  0  0  0  0  0
    2.7130   -1.5140   -0.6230 C   0  0  0  0  0  0  0  0  0  0  0  0
    3.9670   -2.0900   -0.4570 O   0  0  0  0  0  0  0  0  0  0  0  0
    1.7480   -2.1720   -1.3520 C   0  0  0  0  0  0  0  0  0  0  0  0
    0.5010   -1.6450   -1.5420 C   0  0  0  0  0  0  0  0  0  0  0  0
   -0.7150   -2.5040   -2.4770 Cl  0  0  0  0  0  0  0  0  0  0  0  0
  1  2  1  0
  2  3  1  0
  3  4  1  0
  4  5  1  0
  4  9  2  0
  5  6  1  0
  6  7  1  0
  7  8  2  0
  7  9  1  0
  9 10  1  0
 10 11  2  0
 10 20  1  0
 11 12  1  0
 12 13  1  0
 12 17  2  0
 14 13  1  1
 14 15  2  0
 14 16  2  0
 17 18  1  0
 17 19  1  0
 19 20  2  0
 20 21  1  0
M  END
