
     RDKit          3D

 17 18  0  0  0  0  0  0  0  0999 V2000
   -4.2310    1.0700    0.6350 C   0  0  0  0  0  0  0  0  0  0  0  0
   -3.4240   -0.0550    0.8400 O   0  0  0  0  0  0  0  0  0  0  0  0
   -2.1890   -0.1730    0.2200 C   0  0  0  0  0  0  0  0  0  0  0  0
   -1.7460    0.8310   -0.6120 C   0  0  0  0  0  0  0  0  0  0  0  0
   -0.5050    0.6520   -1.1990 C   0  0  0  0  0  0  0  0  0  0  0  0
    0.0490    1.6120   -2.0670 N   0  0  0  0  0  0  0  0  0  0  0  0
    0.2760   -0.4780   -0.9770 C   0  0  0  0  0  0  0  0  0  0  0  0
    1.8690   -0.6860   -1.7440 S   0  0  0  0  0  0  0  0  0  0  0  0
    3.1810   -0.0170   -0.7700 C   0  0  0  0  0  0  0  0  0  0  0  0
    3.6950    1.2390   -0.7950 N   0  0  0  0  0  0  0  0  0  0  0  0
    4.6610    1.2760    0.1080 N   0  0  0  0  0  0  0  0  0  0  0  0
    4.7840    0.1000    0.7060 N   0  0  0  0  0  0  0  0  0  0  0  0
    3.8670   -0.6990    0.1610 N   0  0  0  0  0  0  0  0  0  0  0  0
   -0.1930   -1.4670   -0.1390 C   0  0  0  0  0  0  0  0  0  0  0  0
    0.5640   -2.6160    0.1080 O   0  0  0  0  0  0  0  0  0  0  0  0
   -1.4340   -1.3080    0.4600 C   0  0  0  0  0  0  0  0  0  0  0  0
   -1.9010   -2.3110    1.3040 O   0  0  0  0  0  0  0  0  0  0  0  0
  1  2  1  0
  2  3  1  0
  3  4  2  0
  3 16  1  0
  4  5  1  0
  5  6  1  0
  5  7  2  0
  7  8  1  0
  7 14  1  0
  8  9  1  0
  9 10  2  0
  9 13  1  0
 10 11  1  0
 11 12  2  0
 12 13  1  0
 14 15  1  0
 14 16  2  0
 16 17  1  0
M  CHG  1  12   1
M  END
