
     RDKit          3D

 17 18  0  0  0  0  0  0  0  0999 V2000
   -1.3010    1.7930   -1.7780 O   0  0  0  0  0  0  0  0  0  0  0  0
   -1.9560    0.6580   -1.0140 S   0  0  2  0  0  0  0  0  0  0  0  0
   -2.9930    0.0940   -1.9420 O   0  0  0  0  0  0  0  0  0  0  0  0
   -2.6600    1.2170    0.3990 N   0  0  0  0  0  0  0  0  0  0  0  0
   -3.6260    0.5530    1.0290 N   0  0  0  0  0  0  0  0  0  0  0  0
   -4.2870   -0.4270    0.2170 C   0  0  0  0  0  0  0  0  0  0  0  0
   -5.2890   -1.0680    1.0000 O   0  0  0  0  0  0  0  0  0  0  0  0
   -0.7480   -0.5310   -0.7660 N   0  0  0  0  0  0  0  0  0  0  0  0
    0.6130   -0.2140   -0.5920 C   0  0  0  0  0  0  0  0  0  0  0  0
    1.3430    0.6460   -1.3810 C   0  0  0  0  0  0  0  0  0  0  0  0
    2.6850    0.9210   -1.1750 C   0  0  0  0  0  0  0  0  0  0  0  0
    3.3480    0.3080   -0.1240 C   0  0  0  0  0  0  0  0  0  0  0  0
    4.6050    0.3590    0.3310 N   0  0  0  0  0  0  0  0  0  0  0  0
    4.7100   -0.4490    1.3990 C   0  0  0  0  0  0  0  0  0  0  0  0
    3.5240   -1.0240    1.6390 N   0  0  0  0  0  0  0  0  0  0  0  0
    2.6630   -0.5600    0.6940 C   0  0  0  0  0  0  0  0  0  0  0  0
    1.3200   -0.8080    0.4540 C   0  0  0  0  0  0  0  0  0  0  0  0
  1  2  2  0
  2  3  2  0
  2  4  1  1
  2  8  1  0
  4  5  1  0
  5  6  1  0
  6  7  1  0
  8  9  1  0
  9 10  2  0
  9 17  1  0
 10 11  1  0
 11 12  2  0
 12 13  1  0
 12 16  1  0
 13 14  1  0
 14 15  2  0
 15 16  1  0
 16 17  2  0
M  CHG  1  15   1
M  END
