
     RDKit          3D

 17 17  0  0  0  0  0  0  0  0999 V2000
    6.9120    0.0630   -0.0660 C   0  0  0  0  0  0  0  0  0  0  0  0
    5.6100    0.1690   -0.5970 O   0  0  0  0  0  0  0  0  0  0  0  0
    4.5020    0.3930    0.1410 C   0  0  0  0  0  0  0  0  0  0  0  0
    4.6180    0.5270    1.4190 O   0  0  0  0  0  0  0  0  0  0  0  0
    3.1750    0.4820   -0.4430 C   0  0  0  0  0  0  0  0  0  0  0  0
    2.2020    0.1690    0.6090 N   0  0  0  0  0  0  0  0  0  0  0  0
    0.8570    0.1890    0.2180 C   0  0  0  0  0  0  0  0  0  0  0  0
    0.4330    0.4840   -0.9120 O   0  0  0  0  0  0  0  0  0  0  0  0
   -0.1370   -0.1630    1.1490 N   0  0  0  0  0  0  0  0  0  0  0  0
   -1.4780    0.0060    0.7290 C   0  0  0  0  0  0  0  0  0  0  0  0
   -2.2830   -0.6790    1.2390 N   0  0  0  0  0  0  0  0  0  0  0  0
   -3.6150   -0.6190    0.9050 C   0  0  0  0  0  0  0  0  0  0  0  0
   -4.4240   -1.4450    1.4720 N   0  0  0  0  0  0  0  0  0  0  0  0
   -3.9680    0.3300   -0.0960 C   0  0  0  0  0  0  0  0  0  0  0  0
   -5.0470    0.4950   -0.8120 C   0  0  0  0  0  0  0  0  0  0  0  0
   -6.2160   -0.3060   -0.7480 N   0  0  0  0  0  0  0  0  0  0  0  0
   -2.4580    1.3180   -0.1250 S   0  0  0  0  0  0  0  0  0  0  0  0
  1  2  1  0
  2  3  1  0
  3  4  2  0
  3  5  1  0
  5  6  1  0
  6  7  1  0
  7  8  2  0
  7  9  1  0
  9 10  1  0
 10 11  2  0
 10 17  1  0
 11 12  1  0
 12 13  2  0
 12 14  1  0
 14 15  2  3
 14 17  1  0
 15 16  1  0
M  CHG  1  16   1
M  END
