
     RDKit          3D

 21 22  0  0  0  0  0  0  0  0999 V2000
   -2.9860    2.2280    0.6820 N   0  0  0  0  0  0  0  0  0  0  0  0
   -1.6830    1.6440    0.4880 C   0  0  0  0  0  0  0  0  0  0  0  0
   -0.7530    2.4770    0.6070 O   0  0  0  0  0  0  0  0  0  0  0  0
   -1.4140    0.2530    0.1880 C   0  0  0  0  0  0  0  0  0  0  0  0
   -0.1890   -0.1840    0.0280 C   0  0  0  0  0  0  0  0  0  0  0  0
    1.0170    0.6430    0.1290 C   0  0  0  0  0  0  0  0  0  0  0  0
    1.0660    1.8420    0.3700 O   0  0  0  0  0  0  0  0  0  0  0  0
    2.2810    0.0120   -0.0680 N   0  0  0  0  0  0  0  0  0  0  0  0
    3.5380    0.6790   -0.0010 C   0  0  0  0  0  0  0  0  0  0  0  0
    3.6180    2.0610    0.2710 C   0  0  0  0  0  0  0  0  0  0  0  0
    5.3610    2.4160    0.2490 S   0  0  0  0  0  0  0  0  0  0  0  0
    5.8850    0.7080   -0.1210 C   0  0  0  0  0  0  0  0  0  0  0  0
    4.6950    0.0380   -0.1920 C   0  0  0  0  0  0  0  0  0  0  0  0
    4.7530   -1.3780   -0.4790 O   0  0  0  0  0  0  0  0  0  0  0  0
    0.0040   -1.5620   -0.2660 O   0  0  0  0  0  0  0  0  0  0  0  0
   -1.0080   -2.3290   -0.9040 C   0  0  0  0  0  0  0  0  0  0  0  0
   -2.2330   -2.0440   -0.2300 O   0  0  0  0  0  0  0  0  0  0  0  0
   -2.5280   -0.6910    0.0610 C   0  0  0  0  0  0  0  0  0  0  0  0
   -3.7830   -0.3720    0.2000 C   0  0  0  0  0  0  0  0  0  0  0  0
   -4.8010   -1.5130    0.0280 C   0  0  0  0  0  0  0  0  0  0  0  0
   -5.7090   -1.6630    1.5510 Cl  0  0  0  0  0  0  0  0  0  0  0  0
  1  2  1  0
  2  3  2  0
  2  4  1  0
  4  5  2  0
  4 18  1  0
  5  6  1  0
  5 15  1  0
  6  7  2  0
  6  8  1  0
  8  9  1  0
  9 10  2  0
  9 13  1  0
 10 11  1  0
 11 12  1  0
 12 13  2  0
 13 14  1  0
 15 16  1  0
 16 17  1  0
 17 18  1  0
 18 19  2  3
 19 20  1  0
 20 21  1  0
M  END
