
     RDKit          3D

 24 26  0  0  0  0  0  0  0  0999 V2000
    4.5320   -2.2800   -1.3880 O   0  0  0  0  0  0  0  0  0  0  0  0
    4.3440   -1.5010   -0.4230 C   0  0  0  0  0  0  0  0  0  0  0  0
    5.3380   -1.3860    0.5310 O   0  0  0  0  0  0  0  0  0  0  0  0
    3.0970   -0.7510   -0.3380 C   0  0  0  0  0  0  0  0  0  0  0  0
    2.9250    0.1060    0.7520 C   0  0  0  0  0  0  0  0  0  0  0  0
    1.7360    0.8380    0.8560 C   0  0  0  0  0  0  0  0  0  0  0  0
    0.7460    0.7250   -0.0910 C   0  0  0  0  0  0  0  0  0  0  0  0
   -0.4670    1.5040    0.0630 C   0  0  0  0  0  0  0  0  0  0  0  0
   -0.4000    2.9010    0.0940 C   0  0  0  0  0  0  0  0  0  0  0  0
   -1.5770    3.6040    0.2440 C   0  0  0  0  0  0  0  0  0  0  0  0
   -1.5060    4.9870    0.2750 O   0  0  0  0  0  0  0  0  0  0  0  0
   -2.7710    2.9120    0.3590 C   0  0  0  0  0  0  0  0  0  0  0  0
   -3.8410    3.5860    0.4970 O   0  0  0  0  0  0  0  0  0  0  0  0
   -2.7800    1.5670    0.3230 N   0  0  0  0  0  0  0  0  0  0  0  0
   -1.6630    0.8370    0.1780 C   0  0  0  0  0  0  0  0  0  0  0  0
   -1.6820   -0.6160    0.1390 C   0  0  0  0  0  0  0  0  0  0  0  0
   -1.0510   -1.4060    1.0650 C   0  0  0  0  0  0  0  0  0  0  0  0
   -1.1150   -2.7790    0.9590 C   0  0  0  0  0  0  0  0  0  0  0  0
   -1.8170   -3.3670   -0.0830 C   0  0  0  0  0  0  0  0  0  0  0  0
   -1.8580   -4.7290   -0.1550 F   0  0  0  0  0  0  0  0  0  0  0  0
   -2.4480   -2.5700   -1.0100 C   0  0  0  0  0  0  0  0  0  0  0  0
   -2.3920   -1.1960   -0.9160 C   0  0  0  0  0  0  0  0  0  0  0  0
    0.9520   -0.1270   -1.1490 C   0  0  0  0  0  0  0  0  0  0  0  0
    2.1090   -0.8680   -1.2900 C   0  0  0  0  0  0  0  0  0  0  0  0
  1  2  2  0
  2  3  1  0
  2  4  1  0
  4  5  2  0
  4 24  1  0
  5  6  1  0
  6  7  2  0
  7  8  1  0
  7 23  1  0
  8  9  1  0
  8 15  2  0
  9 10  2  0
 10 11  1  0
 10 12  1  0
 12 13  2  0
 12 14  1  0
 14 15  1  0
 15 16  1  0
 16 17  2  0
 16 22  1  0
 17 18  1  0
 18 19  2  0
 19 20  1  0
 19 21  1  0
 21 22  2  0
 23 24  2  0
M  END
