
     RDKit          3D

 17 17  0  0  0  0  0  0  0  0999 V2000
   -3.3470    2.4270   -0.1950 C   0  0  0  0  0  0  0  0  0  0  0  0
   -2.1610    1.6250    0.1640 C   0  0  0  0  0  0  0  0  0  0  0  0
   -2.1550    0.4420    0.7510 C   0  0  0  0  0  0  0  0  0  0  0  0
   -3.3800   -0.2520    1.1370 C   0  0  0  0  0  0  0  0  0  0  0  0
   -3.6770   -1.4690    0.3090 C   0  0  0  0  0  0  0  0  0  0  0  0
   -2.4660   -2.1010   -0.3040 C   0  0  0  0  0  0  0  0  0  0  0  0
   -1.6050   -1.1820   -1.1130 C   0  0  0  0  0  0  0  0  0  0  0  0
   -0.3780   -0.7360   -0.3480 C   0  0  2  0  0  0  0  0  0  0  0  0
    0.2560    0.2950   -1.0720 O   0  0  0  0  0  0  0  0  0  0  0  0
    0.6270   -1.8260   -0.1660 C   0  0  0  0  0  0  0  0  0  0  0  0
    1.7760   -1.2290    0.6140 C   0  0  0  0  0  0  0  0  0  0  0  0
    1.9540   -1.4670    1.8210 O   0  0  0  0  0  0  0  0  0  0  0  0
    2.6670   -0.3930   -0.0120 O   0  0  0  0  0  0  0  0  0  0  0  0
    3.7800    0.2400    0.5450 C   0  0  0  0  0  0  0  0  0  0  0  0
    4.4130    1.0840   -0.5560 C   0  0  0  0  0  0  0  0  0  0  0  0
    5.6350    1.8210   -0.0830 C   0  0  0  0  0  0  0  0  0  0  0  0
   -0.7730   -0.1350    0.9790 C   0  0  0  0  0  0  0  0  0  0  0  0
  1  2  1  0
  2  3  2  3
  3  4  1  0
  3 17  1  0
  4  5  1  0
  5  6  1  0
  6  7  1  0
  7  8  1  0
  8  9  1  6
  8 10  1  0
  8 17  1  0
 10 11  1  0
 11 12  2  0
 11 13  1  0
 13 14  1  0
 14 15  1  0
 15 16  1  0
M  END
