
     RDKit          3D

 17 17  0  0  0  0  0  0  0  0999 V2000
    3.9220    0.8380    1.7980 C   0  0  0  0  0  0  0  0  0  0  0  0
    3.2970    0.3240    0.4760 C   0  0  1  0  0  0  0  0  0  0  0  0
    3.9070   -1.0110    0.1700 C   0  0  0  0  0  0  0  0  0  0  0  0
    1.8040    0.3040    0.6120 C   0  0  0  0  0  0  0  0  0  0  0  0
    1.1270   -0.1620   -0.6180 C   0  0  2  0  0  0  0  0  0  0  0  0
    1.4770   -1.4600   -0.9570 O   0  0  0  0  0  0  0  0  0  0  0  0
    1.5820    0.6810   -1.8260 C   0  0  0  0  0  0  0  0  0  0  0  0
    1.3730    2.0260   -1.6570 O   0  0  0  0  0  0  0  0  0  0  0  0
   -0.3640   -0.1290   -0.6080 C   0  0  2  0  0  0  0  0  0  0  0  0
   -0.7820   -0.5010   -1.8980 O   0  0  0  0  0  0  0  0  0  0  0  0
   -0.9420    1.3010   -0.4530 C   0  0  0  0  0  0  0  0  0  0  0  0
   -2.2800    1.0050   -0.0720 C   0  0  0  0  0  0  0  0  0  0  0  0
   -3.5530    1.4620    0.3480 C   0  0  0  0  0  0  0  0  0  0  0  0
   -4.3000    0.0890    0.4950 C   0  0  0  0  0  0  0  0  0  0  0  0
   -3.4350   -1.0180    0.9510 C   0  0  0  0  0  0  0  0  0  0  0  0
   -2.3740   -1.6480    0.1160 C   0  0  0  0  0  0  0  0  0  0  0  0
   -0.9760   -1.1400    0.3130 C   0  0  0  0  0  0  0  0  0  0  0  0
  2  1  1  1
  2  3  1  0
  2  4  1  0
  4  5  1  0
  5  6  1  6
  5  7  1  0
  5  9  1  0
  7  8  1  0
  9 10  1  6
  9 11  1  0
  9 17  1  0
 11 12  1  0
 12 13  1  0
 13 14  1  0
 14 15  1  0
 15 16  1  0
 16 17  1  0
M  END
