
     RDKit          3D

 17 17  0  0  0  0  0  0  0  0999 V2000
    5.1910   -1.1370   -0.4940 C   0  0  0  0  0  0  0  0  0  0  0  0
    4.0390   -0.2310   -0.7280 C   0  0  0  0  0  0  0  0  0  0  0  0
    3.1050   -0.4950   -1.6270 C   0  0  0  0  0  0  0  0  0  0  0  0
    3.2390   -1.7450   -2.4140 C   0  0  0  0  0  0  0  0  0  0  0  0
    2.0450    0.3480   -1.8350 O   0  0  0  0  0  0  0  0  0  0  0  0
    1.4860    1.1780   -0.8300 C   0  0  0  0  0  0  0  0  0  0  0  0
    0.9700    0.3200    0.3330 C   0  0  1  0  0  0  0  0  0  0  0  0
    0.3850    1.1700    1.3890 C   0  0  0  0  0  0  0  0  0  0  0  0
   -1.0690    1.2950    1.4720 C   0  0  0  0  0  0  0  0  0  0  0  0
   -1.8850    0.2280    0.8460 C   0  0  1  0  0  0  0  0  0  0  0  0
   -1.8680   -0.9770    1.5490 O   0  0  0  0  0  0  0  0  0  0  0  0
   -3.3110    0.6070    0.5920 C   0  0  2  0  0  0  0  0  0  0  0  0
   -4.1390    0.7880    1.8120 C   0  0  0  0  0  0  0  0  0  0  0  0
   -3.9950   -0.4040   -0.3060 C   0  0  0  0  0  0  0  0  0  0  0  0
   -3.3350    1.8270   -0.1190 O   0  0  0  0  0  0  0  0  0  0  0  0
   -1.2680   -0.0870   -0.5240 C   0  0  0  0  0  0  0  0  0  0  0  0
    0.0590   -0.7100   -0.2500 C   0  0  0  0  0  0  0  0  0  0  0  0
  1  2  1  0
  2  3  2  3
  3  4  1  0
  3  5  1  0
  5  6  1  0
  7  6  1  6
  7  8  1  0
  7 17  1  0
  8  9  1  0
  9 10  1  0
 10 11  1  1
 10 12  1  0
 10 16  1  0
 12 13  1  1
 12 14  1  0
 12 15  1  0
 16 17  1  0
M  END
