
     RDKit          3D

 17 18  0  0  0  0  0  0  0  0999 V2000
   -1.0210   -1.4660   -1.4950 C   0  0  0  0  0  0  0  0  0  0  0  0
   -1.8770   -0.9590   -0.6080 C   0  0  0  0  0  0  0  0  0  0  0  0
   -3.2230   -0.7920   -1.0040 O   0  0  0  0  0  0  0  0  0  0  0  0
   -3.9480    0.2230   -0.3400 C   0  0  0  0  0  0  0  0  0  0  0  0
   -3.7980    0.0950    1.1640 C   0  0  0  0  0  0  0  0  0  0  0  0
   -2.3950   -0.0790    1.5670 C   0  0  0  0  0  0  0  0  0  0  0  0
   -1.5050   -0.5720    0.7340 C   0  0  0  0  0  0  0  0  0  0  0  0
   -0.1150   -0.7070    1.1880 C   0  0  1  0  0  0  0  0  0  0  0  0
    0.2660   -2.0710    1.1610 O   0  0  0  0  0  0  0  0  0  0  0  0
    0.9010    0.0660    0.5070 C   0  0  0  0  0  0  0  0  0  0  0  0
    2.1170   -0.5300    0.2190 C   0  0  0  0  0  0  0  0  0  0  0  0
    3.1500    0.1120   -0.3970 C   0  0  0  0  0  0  0  0  0  0  0  0
    4.4530   -0.5340   -0.7030 C   0  0  0  0  0  0  0  0  0  0  0  0
    3.0080    1.4420   -0.7730 C   0  0  0  0  0  0  0  0  0  0  0  0
    1.8150    2.0400   -0.4960 C   0  0  0  0  0  0  0  0  0  0  0  0
    0.7790    1.3860    0.1260 C   0  0  0  0  0  0  0  0  0  0  0  0
   -0.3940    2.0280    0.3820 O   0  0  0  0  0  0  0  0  0  0  0  0
  1  2  2  0
  2  3  1  0
  2  7  1  0
  3  4  1  0
  4  5  1  0
  5  6  1  0
  6  7  2  0
  7  8  1  0
  8  9  1  6
  8 10  1  0
 10 11  2  0
 10 16  1  0
 11 12  1  0
 12 13  1  0
 12 14  2  0
 14 15  1  0
 15 16  2  0
 16 17  1  0
M  END
