
     RDKit          3D

 22 24  0  0  0  0  0  0  0  0999 V2000
   -5.4400    1.6740   -2.3660 O   0  0  0  0  0  0  0  0  0  0  0  0
   -4.6790    0.8470   -1.8090 C   0  0  0  0  0  0  0  0  0  0  0  0
   -4.5060   -0.5180   -2.1360 N   0  0  0  0  0  0  0  0  0  0  0  0
   -3.5470   -1.1020   -1.2560 C   0  0  0  0  0  0  0  0  0  0  0  0
   -3.1480   -2.2960   -1.2590 O   0  0  0  0  0  0  0  0  0  0  0  0
   -3.1220   -0.0350   -0.3560 C   0  0  0  0  0  0  0  0  0  0  0  0
   -2.2110    0.0110    0.7100 C   0  0  0  0  0  0  0  0  0  0  0  0
   -1.5390   -1.1890    1.0510 N   0  0  0  0  0  0  0  0  0  0  0  0
   -0.5020   -1.3100    2.0450 C   0  0  0  0  0  0  0  0  0  0  0  0
    0.7950   -0.6390    1.6620 C   0  0  0  0  0  0  0  0  0  0  0  0
    1.2810   -1.3020    0.3770 C   0  0  0  0  0  0  0  0  0  0  0  0
    2.5590   -0.7010   -0.0750 C   0  0  0  0  0  0  0  0  0  0  0  0
    3.7790   -1.2000    0.3370 C   0  0  0  0  0  0  0  0  0  0  0  0
    4.9600   -0.6280   -0.0940 C   0  0  0  0  0  0  0  0  0  0  0  0
    4.9670    0.4530   -0.9450 C   0  0  0  0  0  0  0  0  0  0  0  0
    6.1780    1.0270   -1.3780 O   0  0  0  0  0  0  0  0  0  0  0  0
    3.7540    0.9460   -1.3540 C   0  0  0  0  0  0  0  0  0  0  0  0
    2.5700    0.3830   -0.9290 C   0  0  0  0  0  0  0  0  0  0  0  0
   -2.0060    1.1870    1.4000 C   0  0  0  0  0  0  0  0  0  0  0  0
   -2.6900    2.3270    1.0510 C   0  0  0  0  0  0  0  0  0  0  0  0
   -3.5950    2.3320    0.0120 C   0  0  0  0  0  0  0  0  0  0  0  0
   -3.7870    1.1410   -0.6680 C   0  0  0  0  0  0  0  0  0  0  0  0
  1  2  2  0
  2  3  1  0
  2 22  1  0
  3  4  1  0
  4  5  2  0
  4  6  1  0
  6  7  2  0
  6 22  1  0
  7  8  1  0
  7 19  1  0
  8  9  1  0
  9 10  1  0
 10 11  1  0
 11 12  1  0
 12 13  2  0
 12 18  1  0
 13 14  1  0
 14 15  2  0
 15 16  1  0
 15 17  1  0
 17 18  2  0
 19 20  2  0
 20 21  1  0
 21 22  2  0
M  END
