
     RDKit          3D

 17 18  0  0  0  0  0  0  0  0999 V2000
   -3.3270    2.5580    0.1800 C   0  0  0  0  0  0  0  0  0  0  0  0
   -2.0610    1.7230    0.1340 C   0  0  0  0  0  0  0  0  0  0  0  0
   -0.8650    2.3360   -0.1480 C   0  0  0  0  0  0  0  0  0  0  0  0
    0.2970    1.6610   -0.3640 C   0  0  0  0  0  0  0  0  0  0  0  0
    0.2650    0.2700   -0.2930 C   0  0  0  0  0  0  0  0  0  0  0  0
    1.4520   -0.4800   -0.5340 C   0  0  0  0  0  0  0  0  0  0  0  0
    2.6310    0.3340   -0.8660 C   0  0  0  0  0  0  0  0  0  0  0  0
    3.3970    0.9050    0.2470 C   0  0  0  0  0  0  0  0  0  0  0  0
    2.6750    1.3510    1.3660 O   0  0  0  0  0  0  0  0  0  0  0  0
    1.3920   -1.8240   -0.4700 C   0  0  0  0  0  0  0  0  0  0  0  0
    2.4900   -2.6680   -0.7000 O   0  0  0  0  0  0  0  0  0  0  0  0
    0.1610   -2.4300   -0.1570 C   0  0  0  0  0  0  0  0  0  0  0  0
   -0.9970   -1.7430    0.0740 C   0  0  0  0  0  0  0  0  0  0  0  0
   -2.2920   -2.3840    0.2680 C   0  0  0  0  0  0  0  0  0  0  0  0
   -2.2170   -3.2600    1.4010 O   0  0  0  0  0  0  0  0  0  0  0  0
   -0.8970   -0.3510   -0.0140 C   0  0  0  0  0  0  0  0  0  0  0  0
   -2.0940    0.3480    0.2070 C   0  0  0  0  0  0  0  0  0  0  0  0
  1  2  1  0
  2  3  2  0
  2 17  1  0
  3  4  1  0
  4  5  2  0
  5  6  1  0
  5 16  1  0
  6  7  1  0
  6 10  2  0
  7  8  1  0
  8  9  1  0
 10 11  1  0
 10 12  1  0
 12 13  2  0
 13 14  1  0
 13 16  1  0
 14 15  1  0
 16 17  2  0
M  END
