
     RDKit          3D

 17 18  0  0  0  0  0  0  0  0999 V2000
   -1.5130    0.4280   -2.3110 C   0  0  0  0  0  0  0  0  0  0  0  0
   -1.9280    0.4050   -0.8830 C   0  0  0  0  0  0  0  0  0  0  0  0
   -1.1670   -0.2560   -0.0400 C   0  0  0  0  0  0  0  0  0  0  0  0
   -0.0210   -0.9010   -0.4850 O   0  0  0  0  0  0  0  0  0  0  0  0
    1.2530   -0.5170   -0.0950 C   0  0  0  0  0  0  0  0  0  0  0  0
    1.5020    0.5340    0.7640 C   0  0  0  0  0  0  0  0  0  0  0  0
    2.7830    0.9020    1.1410 C   0  0  0  0  0  0  0  0  0  0  0  0
    3.0030    1.9750    2.0150 O   0  0  0  0  0  0  0  0  0  0  0  0
    3.8290    0.1680    0.6190 C   0  0  0  0  0  0  0  0  0  0  0  0
    3.6370   -0.8880   -0.2400 C   0  0  0  0  0  0  0  0  0  0  0  0
    2.3280   -1.2210   -0.5910 C   0  0  0  0  0  0  0  0  0  0  0  0
    2.0810   -2.3540   -1.5160 C   0  0  0  0  0  0  0  0  0  0  0  0
   -1.5110   -0.3210    1.3690 C   0  0  0  0  0  0  0  0  0  0  0  0
   -0.6970   -1.0300    2.2810 O   0  0  0  0  0  0  0  0  0  0  0  0
   -2.5940    0.2890    1.7890 C   0  0  0  0  0  0  0  0  0  0  0  0
   -3.4950    1.0420    0.9350 C   0  0  0  0  0  0  0  0  0  0  0  0
   -3.1580    1.1180   -0.5080 C   0  0  0  0  0  0  0  0  0  0  0  0
  1  2  1  0
  2  3  2  0
  2 17  1  0
  3  4  1  0
  3 13  1  0
  4  5  1  0
  5  6  2  0
  5 11  1  0
  6  7  1  0
  7  8  1  0
  7  9  2  0
  9 10  1  0
 10 11  2  0
 11 12  1  0
 13 14  1  0
 13 15  2  0
 15 16  1  0
 16 17  1  0
M  END
