
     RDKit          3D

 43 46  0  0  0  0  0  0  0  0999 V2000
  -11.5930    0.3010    1.2220 C   0  0  0  0  0  0  0  0  0  0  0  0
  -11.2000   -0.8900    0.4080 C   0  0  0  0  0  0  0  0  0  0  0  0
   -9.8940   -0.8070   -0.1170 O   0  0  0  0  0  0  0  0  0  0  0  0
   -8.7660   -0.6890    0.6740 C   0  0  0  0  0  0  0  0  0  0  0  0
   -8.9430   -0.6560    1.9180 O   0  0  0  0  0  0  0  0  0  0  0  0
   -7.4900   -0.6060    0.1980 O   0  0  0  0  0  0  0  0  0  0  0  0
   -6.3470   -0.4840    1.0430 C   0  0  0  0  0  0  0  0  0  0  0  0
   -5.1170   -0.4190    0.2020 C   0  0  0  0  0  0  0  0  0  0  0  0
   -5.0230   -0.4610   -1.0800 O   0  0  0  0  0  0  0  0  0  0  0  0
   -3.7480   -0.3740   -1.4590 C   0  0  0  0  0  0  0  0  0  0  0  0
   -3.3750   -0.3890   -2.6780 N   0  0  0  0  0  0  0  0  0  0  0  0
   -2.9370   -0.2700   -0.3910 N   0  0  0  0  0  0  0  0  0  0  0  0
   -1.5940   -0.1530   -0.2120 C   0  0  0  0  0  0  0  0  0  0  0  0
   -0.7440   -0.2560   -1.1920 C   0  0  0  0  0  0  0  0  0  0  0  0
   -0.7410   -0.4700   -2.5990 C   0  0  0  0  0  0  0  0  0  0  0  0
   -0.6870   -1.7370   -3.2060 C   0  0  0  0  0  0  0  0  0  0  0  0
   -0.6900   -1.6060   -4.5430 N   0  0  0  0  0  0  0  0  0  0  0  0
   -0.7450   -0.2760   -4.7480 C   0  0  0  0  0  0  0  0  0  0  0  0
   -0.7740    0.3770   -3.6290 O   0  0  0  0  0  0  0  0  0  0  0  0
   -1.1170   -0.0470    1.1070 C   0  0  0  0  0  0  0  0  0  0  0  0
    0.0600    0.3420    1.4500 C   0  0  0  0  0  0  0  0  0  0  0  0
    1.2670    0.8040    0.8660 C   0  0  0  0  0  0  0  0  0  0  0  0
    2.3760    1.0810    1.5560 C   0  0  0  0  0  0  0  0  0  0  0  0
    3.5940    1.5490    0.9450 N   0  0  0  0  0  0  0  0  0  0  0  0
    4.4830    1.7300    1.8470 C   0  0  0  0  0  0  0  0  0  0  0  0
    5.7980    2.1990    1.4970 N   0  0  0  0  0  0  0  0  0  0  0  0
    6.3150    2.0010    0.1900 C   0  0  2  0  0  0  0  0  0  0  0  0
    6.4210    0.5540   -0.2230 C   0  0  0  0  0  0  0  0  0  0  0  0
    7.2570   -0.1640    0.6270 O   0  0  0  0  0  0  0  0  0  0  0  0
    7.3540   -1.4840    0.2700 C   0  0  0  0  0  0  0  0  0  0  0  0
    7.9020   -1.7270   -1.1090 C   0  0  0  0  0  0  0  0  0  0  0  0
    9.1730   -1.2130   -1.2550 O   0  0  0  0  0  0  0  0  0  0  0  0
    9.5980   -1.4510   -2.4660 O   0  0  0  0  0  0  0  0  0  0  0  0
    7.6680    2.5930    0.0920 C   0  0  0  0  0  0  0  0  0  0  0  0
    8.1870    3.1610    1.0790 O   0  0  0  0  0  0  0  0  0  0  0  0
    8.3600    2.5150   -1.0990 O   0  0  0  0  0  0  0  0  0  0  0  0
    4.0070    1.4250    3.1040 O   0  0  0  0  0  0  0  0  0  0  0  0
    2.6660    1.0080    2.9590 C   0  0  0  0  0  0  0  0  0  0  0  0
    1.9040    0.6500    3.8840 O   0  0  0  0  0  0  0  0  0  0  0  0
   -2.0860   -0.0900    2.1420 C   0  0  0  0  0  0  0  0  0  0  0  0
   -1.8450   -0.0230    3.3820 N   0  0  0  0  0  0  0  0  0  0  0  0
   -3.3680   -0.2120    1.8600 O   0  0  0  0  0  0  0  0  0  0  0  0
   -3.8090   -0.2980    0.6530 C   0  0  0  0  0  0  0  0  0  0  0  0
  1  2  1  0
  2  3  1  0
  3  4  1  0
  4  5  2  0
  4  6  1  0
  6  7  1  0
  7  8  1  0
  8  9  1  0
  8 43  2  0
  9 10  1  0
 10 11  2  0
 10 12  1  0
 12 13  1  0
 12 43  1  0
 13 14  2  3
 13 20  1  0
 14 15  1  0
 15 16  2  0
 15 19  1  0
 16 17  1  0
 17 18  2  0
 18 19  1  0
 20 21  2  3
 20 40  1  0
 21 22  1  0
 22 23  2  3
 23 24  1  0
 23 38  1  0
 24 25  2  0
 25 26  1  0
 25 37  1  0
 26 27  1  0
 27 28  1  1
 27 34  1  0
 28 29  1  0
 29 30  1  0
 30 31  1  0
 31 32  1  0
 32 33  1  0
 34 35  2  0
 34 36  1  0
 37 38  1  0
 38 39  2  0
 40 41  2  0
 40 42  1  0
 42 43  1  0
M  END
