
     RDKit          3D

 44 48  0  0  0  0  0  0  0  0999 V2000
   10.6730   -2.6510    0.9700 N   0  0  0  0  0  0  0  0  0  0  0  0
    9.4940   -2.4000    0.2310 C   0  0  0  0  0  0  0  0  0  0  0  0
    8.9580   -3.3290   -0.4230 O   0  0  0  0  0  0  0  0  0  0  0  0
    8.8880   -1.0740    0.2160 C   0  0  0  0  0  0  0  0  0  0  0  0
    9.4870   -0.0520    0.9410 C   0  0  0  0  0  0  0  0  0  0  0  0
    8.8790    1.1840    0.8970 C   0  0  0  0  0  0  0  0  0  0  0  0
    7.7270    1.4080    0.1690 C   0  0  0  0  0  0  0  0  0  0  0  0
    7.1590    0.4170   -0.5250 N   0  0  0  0  0  0  0  0  0  0  0  0
    5.9490    0.6920   -1.2780 C   0  0  2  0  0  0  0  0  0  0  0  0
    5.1360    1.6240   -0.6390 O   0  0  0  0  0  0  0  0  0  0  0  0
    3.9670    1.5450   -1.4210 C   0  0  2  0  0  0  0  0  0  0  0  0
    2.8470    2.3470   -0.7830 C   0  0  0  0  0  0  0  0  0  0  0  0
    2.5340    1.8930    0.4760 O   0  0  0  0  0  0  0  0  0  0  0  0
    1.2830    2.8440    1.0990 P   0  0  1  0  0  0  0  0  0  0  0  0
    1.4520    2.8760    2.6090 O   0  0  0  0  0  0  0  0  0  0  0  0
    1.3520    4.4290    0.4790 O   0  0  0  0  0  0  0  0  0  0  0  0
   -0.2310    2.2160    0.6790 O   0  0  0  0  0  0  0  0  0  0  0  0
   -0.2270    0.5610    1.0080 P   0  0  1  0  0  0  0  0  0  0  0  0
    0.1900   -0.1990   -0.2350 O   0  0  0  0  0  0  0  0  0  0  0  0
    0.8970    0.3050    2.2660 O   0  0  0  0  0  0  0  0  0  0  0  0
   -1.7500    0.0880    1.5380 O   0  0  0  0  0  0  0  0  0  0  0  0
   -2.7000    0.5570    0.6470 C   0  0  0  0  0  0  0  0  0  0  0  0
   -4.0710    0.1240    1.1330 C   0  0  1  0  0  0  0  0  0  0  0  0
   -5.0390    0.6040    0.2210 O   0  0  0  0  0  0  0  0  0  0  0  0
   -6.1340   -0.1580    0.5720 C   0  0  1  0  0  0  0  0  0  0  0  0
   -7.2540    0.0220   -0.3000 N   0  0  0  0  0  0  0  0  0  0  0  0
   -7.3460    0.6350   -1.4930 C   0  0  0  0  0  0  0  0  0  0  0  0
   -8.6040    0.5570   -1.9480 N   0  0  0  0  0  0  0  0  0  0  0  0
   -9.3520   -0.1100   -1.0530 C   0  0  0  0  0  0  0  0  0  0  0  0
  -10.6870   -0.4520   -1.0480 C   0  0  0  0  0  0  0  0  0  0  0  0
  -11.6000   -0.1330   -2.0820 N   0  0  0  0  0  0  0  0  0  0  0  0
  -11.1420   -1.1350    0.0160 N   0  0  0  0  0  0  0  0  0  0  0  0
  -10.2910   -1.4620    1.0350 C   0  0  0  0  0  0  0  0  0  0  0  0
   -8.9930   -1.1220    1.0180 N   0  0  0  0  0  0  0  0  0  0  0  0
   -8.4940   -0.4400   -0.0250 C   0  0  0  0  0  0  0  0  0  0  0  0
   -5.5750   -1.5640    0.4980 C   0  0  2  0  0  0  0  0  0  0  0  0
   -6.3210   -2.4600    1.2580 O   0  0  0  0  0  0  0  0  0  0  0  0
   -4.2200   -1.3710    1.1480 C   0  0  2  0  0  0  0  0  0  0  0  0
   -4.3080   -1.7800    2.4720 O   0  0  0  0  0  0  0  0  0  0  0  0
    3.6740    0.0720   -1.3980 C   0  0  1  0  0  0  0  0  0  0  0  0
    2.9100   -0.3490   -2.4820 O   0  0  0  0  0  0  0  0  0  0  0  0
    5.0710   -0.5270   -1.4190 C   0  0  1  0  0  0  0  0  0  0  0  0
    5.2900   -1.0880   -2.6760 O   0  0  0  0  0  0  0  0  0  0  0  0
    7.7410   -0.7900   -0.4900 C   0  0  0  0  0  0  0  0  0  0  0  0
  1  2  1  0
  2  3  2  0
  2  4  1  0
  4  5  2  0
  4 44  1  0
  5  6  1  0
  6  7  2  0
  7  8  1  0
  9  8  1  1
  8 44  2  0
  9 10  1  0
  9 42  1  0
 10 11  1  0
 11 12  1  1
 11 40  1  0
 12 13  1  0
 13 14  1  0
 14 15  2  0
 14 16  1  6
 14 17  1  0
 17 18  1  0
 18 19  2  0
 18 20  1  1
 18 21  1  0
 21 22  1  0
 23 22  1  6
 23 24  1  0
 23 38  1  0
 24 25  1  0
 25 26  1  6
 25 36  1  0
 26 27  1  0
 26 35  1  0
 27 28  2  0
 28 29  1  0
 29 30  2  0
 29 35  1  0
 30 31  1  0
 30 32  1  0
 32 33  2  0
 33 34  1  0
 34 35  2  0
 36 37  1  1
 36 38  1  0
 38 39  1  1
 40 41  1  6
 40 42  1  0
 42 43  1  6
M  CHG  2   8   1  16  -1
M  END
