
     RDKit          3D

 44 48  0  0  0  0  0  0  0  0999 V2000
    3.6430    0.1090   -1.3750 C   0  0  0  0  0  0  0  0  0  0  0  0
    3.2100   -0.7260   -0.2050 C   0  0  1  0  0  0  0  0  0  0  0  0
    4.4750   -1.1730    0.4900 C   0  0  0  0  0  0  0  0  0  0  0  0
    5.3560   -0.3010    0.9740 O   0  0  0  0  0  0  0  0  0  0  0  0
    5.4990    0.6630    1.8900 C   0  0  0  0  0  0  0  0  0  0  0  0
    4.5350    0.9520    2.6370 O   0  0  0  0  0  0  0  0  0  0  0  0
    6.6880    1.3940    2.0780 O   0  0  0  0  0  0  0  0  0  0  0  0
    2.2430    0.0160    0.6830 C   0  0  0  0  0  0  0  0  0  0  0  0
    2.1570    1.4700    0.5380 C   0  0  0  0  0  0  0  0  0  0  0  0
    1.1020    2.0730   -0.2010 N   0  0  0  0  0  0  0  0  0  0  0  0
    1.3800    3.3510   -0.8030 C   0  0  0  0  0  0  0  0  0  0  0  0
    2.5100    3.8870   -0.6840 O   0  0  0  0  0  0  0  0  0  0  0  0
    0.4460    4.0660   -1.5370 O   0  0  0  0  0  0  0  0  0  0  0  0
   -0.2090    1.5630   -0.4070 C   0  0  2  0  0  0  0  0  0  0  0  0
   -0.6550    1.4930   -1.8220 C   0  0  0  0  0  0  0  0  0  0  0  0
    0.3370    1.1080   -2.8610 C   0  0  0  0  0  0  0  0  0  0  0  0
    0.7900   -0.1950   -2.8270 O   0  0  0  0  0  0  0  0  0  0  0  0
    0.1540   -1.4130   -2.8420 C   0  0  0  0  0  0  0  0  0  0  0  0
    0.5440   -2.1870   -3.7630 O   0  0  0  0  0  0  0  0  0  0  0  0
   -0.8810   -1.9440   -1.9820 C   0  0  0  0  0  0  0  0  0  0  0  0
   -0.8190   -2.2120   -0.6970 C   0  0  0  0  0  0  0  0  0  0  0  0
    0.3470   -2.5920    0.0350 N   0  0  0  0  0  0  0  0  0  0  0  0
    1.6890   -2.7540   -0.3400 C   0  0  0  0  0  0  0  0  0  0  0  0
    2.1240   -3.9920   -0.3190 O   0  0  0  0  0  0  0  0  0  0  0  0
    2.6320   -1.8890   -0.7210 O   0  0  0  0  0  0  0  0  0  0  0  0
   -2.1760   -2.1050   -0.2000 C   0  0  2  0  0  0  0  0  0  0  0  0
   -2.5230   -2.6300    1.1000 C   0  0  0  0  0  0  0  0  0  0  0  0
   -2.2640   -3.8130    1.3930 O   0  0  0  0  0  0  0  0  0  0  0  0
   -3.1600   -1.8670    2.1020 O   0  0  0  0  0  0  0  0  0  0  0  0
   -3.2100   -0.4800    2.0560 C   0  0  1  0  0  0  0  0  0  0  0  0
   -4.1480    0.0870    1.0270 C   0  0  0  0  0  0  0  0  0  0  0  0
   -3.6520    0.1250    3.3730 C   0  0  0  0  0  0  0  0  0  0  0  0
   -3.4870    1.5320    3.2680 O   0  0  0  0  0  0  0  0  0  0  0  0
   -2.8540    2.2210    2.2450 C   0  0  0  0  0  0  0  0  0  0  0  0
   -3.0890    3.4030    2.0030 O   0  0  0  0  0  0  0  0  0  0  0  0
   -1.8680    1.4280    1.4590 N   0  0  0  0  0  0  0  0  0  0  0  0
   -1.2810    2.1960    0.4150 C   0  0  0  0  0  0  0  0  0  0  0  0
   -1.8010    0.1300    1.9430 C   0  0  0  0  0  0  0  0  0  0  0  0
   -0.9520   -0.6840    2.3150 O   0  0  0  0  0  0  0  0  0  0  0  0
   -3.0010   -2.5760   -1.3140 N   0  0  0  0  0  0  0  0  0  0  0  0
   -4.2110   -3.0330   -1.6510 C   0  0  0  0  0  0  0  0  0  0  0  0
   -4.2740   -2.9450   -2.9910 N   0  0  0  0  0  0  0  0  0  0  0  0
   -3.1280   -2.4540   -3.4330 N   0  0  0  0  0  0  0  0  0  0  0  0
   -2.2910   -2.2170   -2.3610 C   0  0  0  0  0  0  0  0  0  0  0  0
  2  1  1  6
  2  3  1  0
  2  8  1  0
  2 25  1  0
  3  4  1  0
  4  5  1  0
  5  6  2  0
  5  7  1  0
  8  9  1  0
  9 10  1  0
 10 11  1  0
 10 14  1  0
 11 12  2  0
 11 13  1  0
 14 15  1  0
 14 37  1  1
 15 16  1  0
 16 17  1  0
 17 18  1  0
 18 19  2  0
 18 20  1  0
 20 21  2  0
 20 44  1  0
 21 22  1  0
 21 26  1  0
 22 23  1  0
 23 24  2  0
 23 25  1  0
 26 27  1  0
 26 40  1  6
 27 28  2  0
 27 29  1  0
 29 30  1  0
 30 31  1  6
 30 32  1  0
 30 38  1  0
 32 33  1  0
 33 34  1  0
 34 35  2  0
 34 36  1  0
 36 37  1  0
 36 38  1  0
 38 39  2  0
 40 41  1  0
 40 44  1  0
 41 42  2  0
 42 43  1  0
 43 44  2  0
M  END
