
     RDKit          3D

 43 46  0  0  0  0  0  0  0  0999 V2000
    0.6200   -7.5420   -2.2800 C   0  0  0  0  0  0  0  0  0  0  0  0
    0.8680   -6.1040   -2.5930 C   0  0  0  0  0  0  0  0  0  0  0  0
   -0.2490   -5.3000   -2.2220 O   0  0  0  0  0  0  0  0  0  0  0  0
   -0.2100   -3.9140   -2.4370 C   0  0  0  0  0  0  0  0  0  0  0  0
    0.8240   -3.4680   -2.9500 O   0  0  0  0  0  0  0  0  0  0  0  0
   -1.2220   -3.0780   -2.1160 O   0  0  0  0  0  0  0  0  0  0  0  0
   -1.3650   -1.7110   -2.2380 C   0  0  0  0  0  0  0  0  0  0  0  0
   -0.4700   -0.8230   -1.4510 C   0  0  1  0  0  0  0  0  0  0  0  0
   -0.5750   -1.0330    0.0420 C   0  0  0  0  0  0  0  0  0  0  0  0
   -2.0000   -0.7480    0.4660 C   0  0  0  0  0  0  0  0  0  0  0  0
   -2.1490   -0.9190    1.8400 O   0  0  0  0  0  0  0  0  0  0  0  0
   -3.4160   -0.6610    2.3130 C   0  0  0  0  0  0  0  0  0  0  0  0
   -4.4990   -1.5190    1.7370 C   0  0  0  0  0  0  0  0  0  0  0  0
   -5.7440   -1.1720    2.2900 O   0  0  0  0  0  0  0  0  0  0  0  0
   -6.2450    0.1050    2.0810 C   0  0  0  0  0  0  0  0  0  0  0  0
   -5.6400    0.9770    1.4110 O   0  0  0  0  0  0  0  0  0  0  0  0
   -7.5090    0.5030    2.6330 N   0  0  0  0  0  0  0  0  0  0  0  0
   -8.0220    1.8260    2.4070 C   0  0  0  0  0  0  0  0  0  0  0  0
   -8.2390    2.0840    0.9450 C   0  0  0  0  0  0  0  0  0  0  0  0
   -8.7400    3.3710    0.7220 O   0  0  0  0  0  0  0  0  0  0  0  0
    0.9570   -0.7980   -1.9120 C   0  0  0  0  0  0  0  0  0  0  0  0
    1.3170    0.5770   -1.3890 N   0  0  0  0  0  0  0  0  0  0  0  0
    2.4740    0.8890   -0.6750 C   0  0  0  0  0  0  0  0  0  0  0  0
    3.3230   -0.0950   -0.5420 O   0  0  0  0  0  0  0  0  0  0  0  0
    2.8650    2.0750   -0.0830 N   0  0  0  0  0  0  0  0  0  0  0  0
    2.1380    3.3170    0.0560 C   0  0  0  0  0  0  0  0  0  0  0  0
    2.7750    4.2910   -0.8910 C   0  0  0  0  0  0  0  0  0  0  0  0
    4.1560    4.2780   -0.6990 O   0  0  0  0  0  0  0  0  0  0  0  0
    4.5740    3.6510    0.4460 C   0  0  0  0  0  0  0  0  0  0  0  0
    4.2290    2.1720    0.4830 C   0  0  1  0  0  0  0  0  0  0  0  0
    4.1740    1.6160    1.8600 C   0  0  0  0  0  0  0  0  0  0  0  0
    5.3250    1.9290    2.6520 O   0  0  0  0  0  0  0  0  0  0  0  0
    6.6130    1.4420    2.4170 C   0  0  0  0  0  0  0  0  0  0  0  0
    7.6240    1.4080    3.3290 C   0  0  0  0  0  0  0  0  0  0  0  0
    8.6570    0.8800    2.7080 O   0  0  0  0  0  0  0  0  0  0  0  0
    8.3730    0.5790    1.4740 N   0  0  0  0  0  0  0  0  0  0  0  0
    7.1010    0.9160    1.2510 C   0  0  0  0  0  0  0  0  0  0  0  0
    6.3510    0.7710    0.0320 N   0  0  0  0  0  0  0  0  0  0  0  0
    5.2020    1.4910   -0.3810 C   0  0  0  0  0  0  0  0  0  0  0  0
    5.0440    1.5210   -1.6400 O   0  0  0  0  0  0  0  0  0  0  0  0
    0.2340    1.3760   -1.8680 C   0  0  0  0  0  0  0  0  0  0  0  0
    0.2800    2.5550   -2.2980 O   0  0  0  0  0  0  0  0  0  0  0  0
   -0.9150    0.5530   -1.7620 N   0  0  0  0  0  0  0  0  0  0  0  0
  1  2  1  0
  2  3  1  0
  3  4  1  0
  4  5  2  0
  4  6  1  0
  6  7  1  0
  8  7  1  6
  8  9  1  0
  8 21  1  0
  8 43  1  0
  9 10  1  0
 10 11  1  0
 11 12  1  0
 12 13  1  0
 13 14  1  0
 14 15  1  0
 15 16  2  0
 15 17  1  0
 17 18  1  0
 18 19  1  0
 19 20  1  0
 21 22  1  0
 22 23  1  0
 22 41  1  0
 23 24  2  0
 23 25  1  0
 25 26  1  0
 25 30  1  0
 26 27  1  0
 27 28  1  0
 28 29  1  0
 30 29  1  1
 30 31  1  0
 30 39  1  0
 31 32  1  0
 32 33  1  0
 33 34  2  0
 33 37  1  0
 34 35  1  0
 35 36  1  0
 36 37  2  0
 37 38  1  0
 38 39  1  0
 39 40  2  0
 41 42  2  0
 41 43  1  0
M  END
