
     RDKit          3D

 43 47  0  0  0  0  0  0  0  0999 V2000
    0.0690   -4.3470    0.3410 O   0  0  0  0  0  0  0  0  0  0  0  0
   -0.2500   -3.2340    0.8800 C   0  0  0  0  0  0  0  0  0  0  0  0
   -0.6710   -2.1890    0.0120 N   0  0  0  0  0  0  0  0  0  0  0  0
   -1.2200   -0.9710    0.5000 C   0  0  0  0  0  0  0  0  0  0  0  0
   -1.3690    0.0870   -0.5080 C   0  0  1  0  0  0  0  0  0  0  0  0
   -2.7230   -0.1250   -1.1880 C   0  0  0  0  0  0  0  0  0  0  0  0
   -3.7510   -0.2240   -0.2190 O   0  0  0  0  0  0  0  0  0  0  0  0
   -5.0660   -0.4180   -0.5990 C   0  0  0  0  0  0  0  0  0  0  0  0
   -5.3100   -0.5020   -1.8270 O   0  0  0  0  0  0  0  0  0  0  0  0
   -6.1080   -0.5170    0.4280 C   0  0  2  0  0  0  0  0  0  0  0  0
   -7.0410    0.6530    0.2990 C   0  0  0  0  0  0  0  0  0  0  0  0
   -7.4800    0.8390    1.5940 O   0  0  0  0  0  0  0  0  0  0  0  0
   -6.4520    0.4190    2.4360 C   0  0  0  0  0  0  0  0  0  0  0  0
   -5.6220   -0.3980    1.7090 O   0  0  0  0  0  0  0  0  0  0  0  0
   -1.4280    1.4930    0.0850 C   0  0  0  0  0  0  0  0  0  0  0  0
   -1.9500    2.2990   -0.8760 O   0  0  0  0  0  0  0  0  0  0  0  0
   -1.2710    2.3810   -2.0620 C   0  0  0  0  0  0  0  0  0  0  0  0
   -0.7160    1.0930   -2.5850 C   0  0  0  0  0  0  0  0  0  0  0  0
   -0.3090    0.1900   -1.4910 N   0  0  0  0  0  0  0  0  0  0  0  0
    0.9390   -0.4360   -1.4830 C   0  0  0  0  0  0  0  0  0  0  0  0
    1.2460   -0.9980   -2.5960 O   0  0  0  0  0  0  0  0  0  0  0  0
    1.9260   -0.5350   -0.3960 C   0  0  2  0  0  0  0  0  0  0  0  0
    3.0780    0.4100   -0.5900 C   0  0  0  0  0  0  0  0  0  0  0  0
    3.6090    0.7000   -1.8290 C   0  0  0  0  0  0  0  0  0  0  0  0
    4.6700    1.5780   -1.9460 C   0  0  0  0  0  0  0  0  0  0  0  0
    5.2330    2.1930   -0.8350 C   0  0  0  0  0  0  0  0  0  0  0  0
    6.2930    3.0740   -0.9300 O   0  0  0  0  0  0  0  0  0  0  0  0
    6.1700    4.3820   -1.0860 O   0  0  0  0  0  0  0  0  0  0  0  0
    5.7110    4.9910   -0.0190 O   0  0  0  0  0  0  0  0  0  0  0  0
    6.5820    5.0550    0.9520 O   0  0  0  0  0  0  0  0  0  0  0  0
    4.7080    1.9090    0.4070 C   0  0  0  0  0  0  0  0  0  0  0  0
    3.6420    1.0270    0.5360 C   0  0  0  0  0  0  0  0  0  0  0  0
    2.5020   -1.8800   -0.2490 N   0  0  0  0  0  0  0  0  0  0  0  0
    2.7860   -2.7920   -1.1920 C   0  0  0  0  0  0  0  0  0  0  0  0
    3.3200   -3.9140   -0.5940 C   0  0  0  0  0  0  0  0  0  0  0  0
    3.3440   -3.6490    0.6940 N   0  0  0  0  0  0  0  0  0  0  0  0
    2.8450   -2.3970    0.9400 C   0  0  0  0  0  0  0  0  0  0  0  0
    2.7350   -1.8000    2.2150 N   0  0  0  0  0  0  0  0  0  0  0  0
    1.5830   -1.3670    2.8880 C   0  0  0  0  0  0  0  0  0  0  0  0
    1.6400   -0.2090    3.4420 O   0  0  0  0  0  0  0  0  0  0  0  0
    0.3150   -2.0590    3.0480 C   0  0  0  0  0  0  0  0  0  0  0  0
   -0.4870   -1.6610    3.9830 O   0  0  0  0  0  0  0  0  0  0  0  0
   -0.1560   -3.1380    2.2870 N   0  0  0  0  0  0  0  0  0  0  0  0
  1  2  2  0
  2  3  1  0
  2 43  1  0
  3  4  1  0
  4  5  1  0
  5  6  1  6
  5 15  1  0
  5 19  1  0
  6  7  1  0
  7  8  1  0
  8  9  2  0
 10  8  1  6
 10 11  1  0
 10 14  1  0
 11 12  1  0
 12 13  1  0
 13 14  1  0
 15 16  1  0
 16 17  1  0
 17 18  1  0
 18 19  1  0
 19 20  1  0
 20 21  2  0
 20 22  1  0
 22 23  1  6
 22 33  1  0
 23 24  2  0
 23 32  1  0
 24 25  1  0
 25 26  2  0
 26 27  1  0
 26 31  1  0
 27 28  1  0
 28 29  1  0
 29 30  1  0
 31 32  2  0
 33 34  1  0
 33 37  1  0
 34 35  2  0
 35 36  1  0
 36 37  2  0
 37 38  1  0
 38 39  1  0
 39 40  2  0
 39 41  1  0
 41 42  2  0
 41 43  1  0
M  END
