
     RDKit          3D

 43 45  0  0  0  0  0  0  0  0999 V2000
    8.5020    0.8020    0.4980 C   0  0  0  0  0  0  0  0  0  0  0  0
    7.7190    1.9920   -0.0020 C   0  0  0  0  0  0  0  0  0  0  0  0
    6.3030    1.7650    0.3260 N   0  0  0  0  0  0  0  0  0  0  0  0
    5.6310    2.1640    1.5400 C   0  0  0  0  0  0  0  0  0  0  0  0
    4.1720    2.2800    1.0790 C   0  0  0  0  0  0  0  0  0  0  0  0
    4.0560    1.1510    0.1970 N   0  0  0  0  0  0  0  0  0  0  0  0
    3.0970    0.2390   -0.0790 O   0  0  0  0  0  0  0  0  0  0  0  0
    1.7930    0.2160    0.4490 C   0  0  0  0  0  0  0  0  0  0  0  0
    1.5870    1.1730    1.2440 O   0  0  0  0  0  0  0  0  0  0  0  0
    0.8880   -0.7810    0.0870 N   0  0  0  0  0  0  0  0  0  0  0  0
    1.3590   -1.8620   -0.8190 C   0  0  0  0  0  0  0  0  0  0  0  0
    1.3190   -3.1620    0.0150 C   0  0  0  0  0  0  0  0  0  0  0  0
    0.7320   -2.9550    1.3120 N   0  0  0  0  0  0  0  0  0  0  0  0
   -0.2760   -2.0060    1.6260 C   0  0  0  0  0  0  0  0  0  0  0  0
   -0.9700   -2.0290    2.6420 O   0  0  0  0  0  0  0  0  0  0  0  0
   -0.4440   -0.9020    0.5620 C   0  0  1  0  0  0  0  0  0  0  0  0
   -0.9940    0.2810    1.2400 C   0  0  0  0  0  0  0  0  0  0  0  0
   -1.5990    0.1000    2.3760 O   0  0  0  0  0  0  0  0  0  0  0  0
   -0.9550    1.6110    0.8080 N   0  0  0  0  0  0  0  0  0  0  0  0
   -1.4730    2.7680    1.4330 C   0  0  0  0  0  0  0  0  0  0  0  0
   -1.1750    4.0420    0.9150 C   0  0  0  0  0  0  0  0  0  0  0  0
   -1.6520    5.2020    1.4660 C   0  0  0  0  0  0  0  0  0  0  0  0
   -2.4600    5.1820    2.5730 C   0  0  0  0  0  0  0  0  0  0  0  0
   -2.7760    3.9610    3.1110 C   0  0  0  0  0  0  0  0  0  0  0  0
   -2.2830    2.7840    2.5390 C   0  0  0  0  0  0  0  0  0  0  0  0
   -1.3870   -1.5030   -0.4520 C   0  0  2  0  0  0  0  0  0  0  0  0
   -1.5450   -0.8150   -1.7150 C   0  0  0  0  0  0  0  0  0  0  0  0
   -0.9050    0.1690   -2.1230 O   0  0  0  0  0  0  0  0  0  0  0  0
   -2.5290   -1.2900   -2.6130 O   0  0  0  0  0  0  0  0  0  0  0  0
   -2.7020   -0.6370   -3.8510 C   0  0  0  0  0  0  0  0  0  0  0  0
   -2.7390   -1.8010    0.0730 C   0  0  0  0  0  0  0  0  0  0  0  0
   -3.1420   -1.6150    1.2240 O   0  0  0  0  0  0  0  0  0  0  0  0
   -3.6180   -2.3510   -0.8710 O   0  0  0  0  0  0  0  0  0  0  0  0
   -4.9190   -2.7090   -0.6020 C   0  0  0  0  0  0  0  0  0  0  0  0
   -5.3490   -2.5340    0.5580 O   0  0  0  0  0  0  0  0  0  0  0  0
   -5.8020   -3.2760   -1.6020 C   0  0  0  0  0  0  0  0  0  0  0  0
   -5.3670   -3.4350   -2.7670 O   0  0  0  0  0  0  0  0  0  0  0  0
   -7.1220   -3.6410   -1.2650 N   0  0  0  0  0  0  0  0  0  0  0  0
   -8.0350   -4.2040   -2.1990 C   0  0  0  0  0  0  0  0  0  0  0  0
   -7.6540   -4.3800   -3.3800 O   0  0  0  0  0  0  0  0  0  0  0  0
   -9.3340   -4.5750   -1.8900 O   0  0  0  0  0  0  0  0  0  0  0  0
    5.3330    1.1150   -0.4790 C   0  0  0  0  0  0  0  0  0  0  0  0
    5.5320    0.5780   -1.6170 O   0  0  0  0  0  0  0  0  0  0  0  0
  1  2  1  0
  2  3  1  0
  3  4  1  0
  3 42  1  0
  4  5  1  0
  5  6  1  0
  6  7  1  0
  6 42  1  0
  7  8  1  0
  8  9  2  0
  8 10  1  0
 10 11  1  0
 10 16  1  0
 11 12  1  0
 12 13  1  0
 13 14  1  0
 14 15  2  0
 14 16  1  0
 16 17  1  1
 16 26  1  0
 17 18  2  0
 17 19  1  0
 19 20  1  0
 20 21  2  0
 20 25  1  0
 21 22  1  0
 22 23  2  0
 23 24  1  0
 24 25  2  0
 26 27  1  6
 26 31  1  0
 27 28  2  0
 27 29  1  0
 29 30  1  0
 31 32  2  0
 31 33  1  0
 33 34  1  0
 34 35  2  0
 34 36  1  0
 36 37  2  0
 36 38  1  0
 38 39  1  0
 39 40  2  0
 39 41  1  0
 42 43  2  0
M  END
