
     RDKit          3D

 43 46  0  0  0  0  0  0  0  0999 V2000
   -6.8310   -2.6510   -1.4720 C   0  0  0  0  0  0  0  0  0  0  0  0
   -6.6050   -2.5690   -0.0920 O   0  0  0  0  0  0  0  0  0  0  0  0
   -5.7670   -1.5710    0.4040 C   0  0  0  0  0  0  0  0  0  0  0  0
   -5.5860   -1.5450    1.7680 C   0  0  0  0  0  0  0  0  0  0  0  0
   -4.7670   -0.5770    2.2990 C   0  0  0  0  0  0  0  0  0  0  0  0
   -4.1570    0.3280    1.4690 C   0  0  0  0  0  0  0  0  0  0  0  0
   -4.3080    0.3400    0.1020 C   0  0  0  0  0  0  0  0  0  0  0  0
   -3.6540    1.3710   -0.7150 C   0  0  0  0  0  0  0  0  0  0  0  0
   -2.2210    1.1160   -1.0900 C   0  0  2  0  0  0  0  0  0  0  0  0
   -2.2170   -0.2010   -1.8850 C   0  0  0  0  0  0  0  0  0  0  0  0
   -1.8970   -0.1930   -3.0860 N   0  0  0  0  0  0  0  0  0  0  0  0
   -1.4990    0.8900   -3.9140 C   0  0  0  0  0  0  0  0  0  0  0  0
   -0.5080    1.6280   -3.8430 N   0  0  0  0  0  0  0  0  0  0  0  0
    0.6440    1.9290   -3.1560 C   0  0  0  0  0  0  0  0  0  0  0  0
    1.3850    2.8340   -3.7890 O   0  0  0  0  0  0  0  0  0  0  0  0
    1.0340    1.4160   -1.9890 O   0  0  0  0  0  0  0  0  0  0  0  0
    1.8090    0.4380   -1.4460 C   0  0  0  0  0  0  0  0  0  0  0  0
    2.9230    0.7510   -0.5220 C   0  0  1  0  0  0  0  0  0  0  0  0
    3.2180   -0.4830    0.1340 O   0  0  0  0  0  0  0  0  0  0  0  0
    4.3620   -0.4490    0.8760 C   0  0  0  0  0  0  0  0  0  0  0  0
    4.6210   -1.8090    1.5470 C   0  0  0  0  0  0  0  0  0  0  0  0
    4.7530   -2.8060    0.5840 O   0  0  0  0  0  0  0  0  0  0  0  0
    4.9710   -3.9290    1.2320 O   0  0  0  0  0  0  0  0  0  0  0  0
    6.2150   -4.0840    1.5850 O   0  0  0  0  0  0  0  0  0  0  0  0
    4.1050    0.9080   -1.3350 O   0  0  0  0  0  0  0  0  0  0  0  0
    4.6640   -0.0860   -2.1020 C   0  0  0  0  0  0  0  0  0  0  0  0
    4.1740   -1.2310   -2.1360 O   0  0  0  0  0  0  0  0  0  0  0  0
    5.8100    0.1350   -2.8830 O   0  0  0  0  0  0  0  0  0  0  0  0
    2.8490    1.8640    0.3970 C   0  0  0  0  0  0  0  0  0  0  0  0
    3.0370    3.0450   -0.0920 O   0  0  0  0  0  0  0  0  0  0  0  0
    2.5970    1.9160    1.8170 N   0  0  0  0  0  0  0  0  0  0  0  0
    3.3890    2.7010    2.7460 C   0  0  0  0  0  0  0  0  0  0  0  0
    1.4800    1.1870    2.4270 C   0  0  0  0  0  0  0  0  0  0  0  0
    1.6040    0.8960    3.6460 O   0  0  0  0  0  0  0  0  0  0  0  0
    0.2370    0.7790    1.6910 C   0  0  0  0  0  0  0  0  0  0  0  0
   -0.4490    1.4650    0.7980 C   0  0  0  0  0  0  0  0  0  0  0  0
   -1.3990    0.7490    0.0260 N   0  0  0  0  0  0  0  0  0  0  0  0
   -1.6640   -0.6710    0.1890 C   0  0  0  0  0  0  0  0  0  0  0  0
   -2.5470   -1.0520   -0.7490 N   0  0  0  0  0  0  0  0  0  0  0  0
   -0.9620   -1.4220    1.1650 N   0  0  0  0  0  0  0  0  0  0  0  0
   -0.0060   -0.6820    1.9140 C   0  0  0  0  0  0  0  0  0  0  0  0
    0.6470   -1.3340    2.8060 O   0  0  0  0  0  0  0  0  0  0  0  0
   -5.1470   -0.6560   -0.4170 C   0  0  0  0  0  0  0  0  0  0  0  0
  1  2  1  0
  2  3  1  0
  3  4  2  0
  3 43  1  0
  4  5  1  0
  5  6  2  0
  6  7  1  0
  7  8  1  0
  7 43  2  0
  9  8  1  1
  9 10  1  0
  9 37  1  0
 10 11  2  0
 10 39  1  0
 11 12  1  0
 12 13  2  0
 13 14  1  0
 14 15  2  0
 14 16  1  0
 16 17  1  0
 17 18  1  0
 18 19  1  1
 18 25  1  0
 18 29  1  0
 19 20  1  0
 20 21  1  0
 21 22  1  0
 22 23  1  0
 23 24  1  0
 25 26  1  0
 26 27  2  0
 26 28  1  0
 29 30  2  0
 29 31  1  0
 31 32  1  0
 31 33  1  0
 33 34  2  0
 33 35  1  0
 35 36  2  0
 35 41  1  0
 36 37  1  0
 37 38  1  0
 38 39  2  0
 38 40  1  0
 40 41  1  0
 41 42  2  0
M  END
