
     RDKit          3D

 24 26  0  0  0  0  0  0  0  0999 V2000
    6.5200    2.0260   -0.6340 C   0  0  0  0  0  0  0  0  0  0  0  0
    5.5430    0.9220   -0.9030 C   0  0  0  0  0  0  0  0  0  0  0  0
    4.9800    0.4190    0.4100 C   0  0  0  0  0  0  0  0  0  0  0  0
    4.0040   -0.6790    0.1980 C   0  0  0  0  0  0  0  0  0  0  0  0
    2.6310   -0.4240    0.3180 C   0  0  0  0  0  0  0  0  0  0  0  0
    1.7220   -1.4370    0.1220 C   0  0  0  0  0  0  0  0  0  0  0  0
    0.2760   -1.1660    0.2430 C   0  0  0  0  0  0  0  0  0  0  0  0
   -0.4470   -2.1720    0.3150 O   0  0  0  0  0  0  0  0  0  0  0  0
   -0.2400    0.1260    0.2720 N   0  0  0  0  0  0  0  0  0  0  0  0
   -1.6010    0.4440    0.3870 C   0  0  0  0  0  0  0  0  0  0  0  0
   -2.5790   -0.4860    0.4890 C   0  0  0  0  0  0  0  0  0  0  0  0
   -3.9060   -0.0600    0.6000 C   0  0  0  0  0  0  0  0  0  0  0  0
   -4.2220    1.2750    0.6060 C   0  0  0  0  0  0  0  0  0  0  0  0
   -3.2430    2.2080    0.5040 N   0  0  0  0  0  0  0  0  0  0  0  0
   -1.9780    1.8010    0.3980 C   0  0  0  0  0  0  0  0  0  0  0  0
   -1.0840    2.7090    0.3030 O   0  0  0  0  0  0  0  0  0  0  0  0
   -5.6510    1.6410    0.7310 C   0  0  0  0  0  0  0  0  0  0  0  0
   -6.5420    0.8100   -0.1400 C   0  0  0  0  0  0  0  0  0  0  0  0
   -6.0550   -0.5930   -0.3360 C   0  0  0  0  0  0  0  0  0  0  0  0
   -5.0500   -1.0040    0.7150 C   0  0  0  0  0  0  0  0  0  0  0  0
    2.1590   -2.7100   -0.1930 C   0  0  0  0  0  0  0  0  0  0  0  0
    3.5040   -2.9880   -0.3170 C   0  0  0  0  0  0  0  0  0  0  0  0
    4.4070   -1.9570   -0.1180 C   0  0  0  0  0  0  0  0  0  0  0  0
    5.7920   -2.1860   -0.2320 O   0  0  0  0  0  0  0  0  0  0  0  0
  1  2  1  0
  2  3  1  0
  3  4  1  0
  4  5  2  0
  4 23  1  0
  5  6  1  0
  6  7  1  0
  6 21  2  0
  7  8  2  0
  7  9  1  0
  9 10  1  0
 10 11  2  0
 10 15  1  0
 11 12  1  0
 12 13  2  0
 12 20  1  0
 13 14  1  0
 13 17  1  0
 14 15  1  0
 15 16  2  0
 17 18  1  0
 18 19  1  0
 19 20  1  0
 21 22  1  0
 22 23  2  0
 23 24  1  0
M  END
