
     RDKit          3D

 24 26  0  0  0  0  0  0  0  0999 V2000
    6.7760   -2.9610   -1.3540 N   0  0  0  0  0  0  0  0  0  0  0  0
    5.5560   -2.2600   -1.0250 C   0  0  0  0  0  0  0  0  0  0  0  0
    4.1550   -1.4650   -0.6500 C   0  0  0  0  0  0  0  0  0  0  0  0
    3.1270   -2.2770   -0.7170 C   0  0  0  0  0  0  0  0  0  0  0  0
    1.8930   -1.7840   -0.2450 C   0  0  0  0  0  0  0  0  0  0  0  0
    1.9460   -0.4840    0.2430 C   0  0  0  0  0  0  0  0  0  0  0  0
    0.7720    0.0710    0.9740 C   0  0  0  0  0  0  0  0  0  0  0  0
   -0.5260    0.0830    0.0690 C   0  0  0  0  0  0  0  0  0  0  0  0
   -0.5650   -0.3740   -0.8630 O   0  0  0  0  0  0  0  0  0  0  0  0
   -1.5640    0.7940    0.7470 N   0  0  0  0  0  0  0  0  0  0  0  0
   -2.9000    0.5160    0.1020 C   0  0  1  0  0  0  0  0  0  0  0  0
   -2.7830    0.4460   -1.4130 C   0  0  0  0  0  0  0  0  0  0  0  0
   -2.6010    0.8790   -2.2440 O   0  0  0  0  0  0  0  0  0  0  0  0
   -3.0500   -1.1300   -1.5880 O   0  0  0  0  0  0  0  0  0  0  0  0
   -3.3770   -0.6580    0.8260 C   0  0  0  0  0  0  0  0  0  0  0  0
   -4.6960   -1.1750    0.3850 C   0  0  0  0  0  0  0  0  0  0  0  0
   -5.6590   -0.0820    0.1270 C   0  0  0  0  0  0  0  0  0  0  0  0
   -5.2250    1.2460    0.7320 C   0  0  0  0  0  0  0  0  0  0  0  0
   -3.8580    1.6380    0.3060 C   0  0  0  0  0  0  0  0  0  0  0  0
    3.0930    0.2670    0.2840 C   0  0  0  0  0  0  0  0  0  0  0  0
    4.3310   -0.2380   -0.2390 C   0  0  0  0  0  0  0  0  0  0  0  0
    5.4210    0.6420   -0.6510 C   0  0  2  0  0  0  0  0  0  0  0  0
    6.6120    0.9950    0.1530 C   0  0  0  0  0  0  0  0  0  0  0  0
    5.4120    1.9390    0.2860 C   0  0  0  0  0  0  0  0  0  0  0  0
  1  2  3  0
  2  3  1  0
  3  4  2  0
  3 21  1  0
  4  5  1  0
  5  6  2  0
  6  7  1  0
  6 20  1  0
  7  8  1  0
  8  9  2  0
  8 10  1  0
 11 10  1  1
 11 12  1  0
 11 15  1  0
 11 19  1  0
 12 13  2  0
 12 14  1  0
 15 16  1  0
 16 17  1  0
 17 18  1  0
 18 19  1  0
 20 21  2  0
 22 21  1  1
 22 23  1  0
 22 24  1  0
 23 24  1  0
M  END
