
     RDKit          3D

 24 26  0  0  0  0  0  0  0  0999 V2000
   -7.4020    2.2750    0.6270 N   0  0  0  0  0  0  0  0  0  0  0  0
   -6.4620    1.5640    0.1170 C   0  0  0  0  0  0  0  0  0  0  0  0
   -6.7410    0.1580   -0.2320 C   0  0  0  0  0  0  0  0  0  0  0  0
   -5.6080   -0.7450    0.1390 C   0  0  0  0  0  0  0  0  0  0  0  0
   -4.2680   -0.2050   -0.1240 C   0  0  0  0  0  0  0  0  0  0  0  0
   -3.1810   -1.0530   -0.2510 C   0  0  0  0  0  0  0  0  0  0  0  0
   -1.9360   -0.5390   -0.4950 C   0  0  0  0  0  0  0  0  0  0  0  0
   -0.8390   -1.4720   -0.6410 C   0  0  0  0  0  0  0  0  0  0  0  0
   -1.1030   -2.6150   -1.1180 O   0  0  0  0  0  0  0  0  0  0  0  0
    0.5170   -1.1360   -0.2660 C   0  0  0  0  0  0  0  0  0  0  0  0
    0.8210   -0.1760    0.6680 C   0  0  0  0  0  0  0  0  0  0  0  0
    2.1420    0.1530    0.9990 C   0  0  0  0  0  0  0  0  0  0  0  0
    3.1820   -0.4980    0.3780 C   0  0  0  0  0  0  0  0  0  0  0  0
    4.6010   -0.1200    0.7400 C   0  0  0  0  0  0  0  0  0  0  0  0
    5.4730   -1.1300    0.4290 O   0  0  0  0  0  0  0  0  0  0  0  0
    6.7540   -0.8340    0.7650 C   0  0  0  0  0  0  0  0  0  0  0  0
    7.2370    0.3840    0.0230 C   0  0  0  0  0  0  0  0  0  0  0  0
    7.1900    0.2040   -1.3610 O   0  0  0  0  0  0  0  0  0  0  0  0
    2.8960   -1.4650   -0.5610 C   0  0  0  0  0  0  0  0  0  0  0  0
    1.5890   -1.7890   -0.8880 C   0  0  0  0  0  0  0  0  0  0  0  0
   -1.7490    0.8080   -0.6140 C   0  0  0  0  0  0  0  0  0  0  0  0
   -2.8090    1.6640   -0.4910 C   0  0  0  0  0  0  0  0  0  0  0  0
   -4.0610    1.1620   -0.2470 C   0  0  0  0  0  0  0  0  0  0  0  0
   -5.1740    2.0670   -0.1250 N   0  0  0  0  0  0  0  0  0  0  0  0
  1  2  2  0
  2  3  1  0
  2 24  1  0
  3  4  1  0
  4  5  1  0
  5  6  2  0
  5 23  1  0
  6  7  1  0
  7  8  1  0
  7 21  2  0
  8  9  2  0
  8 10  1  0
 10 11  2  0
 10 20  1  0
 11 12  1  0
 12 13  2  0
 13 14  1  0
 13 19  1  0
 14 15  1  0
 15 16  1  0
 16 17  1  0
 17 18  1  0
 19 20  2  0
 21 22  1  0
 22 23  2  0
 23 24  1  0
M  END
