
     RDKit          3D

 24 26  0  0  0  0  0  0  0  0999 V2000
    7.4090    1.3970   -0.1880 C   0  0  0  0  0  0  0  0  0  0  0  0
    6.4970    0.2380    0.1490 C   0  0  0  0  0  0  0  0  0  0  0  0
    5.0520    0.6960    0.0690 C   0  0  0  0  0  0  0  0  0  0  0  0
    4.1170   -0.4020    0.3910 C   0  0  0  0  0  0  0  0  0  0  0  0
    4.5950   -1.5290    0.6780 O   0  0  0  0  0  0  0  0  0  0  0  0
    2.7270   -0.2180    0.3840 N   0  0  0  0  0  0  0  0  0  0  0  0
    2.0740    1.0340    0.0700 C   0  0  0  0  0  0  0  0  0  0  0  0
    1.0360    0.8930   -0.9850 C   0  0  0  0  0  0  0  0  0  0  0  0
    0.6950   -0.4930   -1.4130 C   0  0  2  0  0  0  0  0  0  0  0  0
   -0.6490   -0.5340   -1.9890 C   0  0  0  0  0  0  0  0  0  0  0  0
   -0.6650   -0.7950   -3.2610 O   0  0  0  0  0  0  0  0  0  0  0  0
   -1.9430   -0.3270   -1.3850 C   0  0  0  0  0  0  0  0  0  0  0  0
   -3.1030   -0.3240   -2.1350 N   0  0  0  0  0  0  0  0  0  0  0  0
   -4.1710   -0.1480   -1.3470 C   0  0  0  0  0  0  0  0  0  0  0  0
   -3.7570   -0.0310   -0.0580 C   0  0  0  0  0  0  0  0  0  0  0  0
   -2.3460   -0.1450   -0.0850 C   0  0  0  0  0  0  0  0  0  0  0  0
   -1.5490   -0.0970    1.1550 C   0  0  0  0  0  0  0  0  0  0  0  0
   -4.9110    0.1600    0.8250 C   0  0  0  0  0  0  0  0  0  0  0  0
   -4.9150    0.6870    1.9510 O   0  0  0  0  0  0  0  0  0  0  0  0
   -6.0450   -0.4330    0.0310 C   0  0  1  0  0  0  0  0  0  0  0  0
   -7.3700    0.1210    0.4680 C   0  0  0  0  0  0  0  0  0  0  0  0
   -5.6730   -0.0250   -1.3690 C   0  0  0  0  0  0  0  0  0  0  0  0
    0.9450   -1.6000   -0.4520 C   0  0  0  0  0  0  0  0  0  0  0  0
    1.8270   -1.3200    0.7060 C   0  0  0  0  0  0  0  0  0  0  0  0
  1  2  1  0
  2  3  1  0
  3  4  1  0
  4  5  2  0
  4  6  1  0
  6  7  1  0
  6 24  1  0
  7  8  1  0
  8  9  1  0
  9 10  1  1
  9 23  1  0
 10 11  2  0
 10 12  1  0
 12 13  1  0
 12 16  2  0
 13 14  1  0
 14 15  2  0
 14 22  1  0
 15 16  1  0
 15 18  1  0
 16 17  1  0
 18 19  2  0
 18 20  1  0
 20 21  1  1
 20 22  1  0
 23 24  1  0
M  END
