
     RDKit          3D

 24 26  0  0  0  0  0  0  0  0999 V2000
    6.0070   -1.4150    2.4520 C   0  0  0  0  0  0  0  0  0  0  0  0
    5.1500   -0.6630    1.4830 C   0  0  0  0  0  0  0  0  0  0  0  0
    5.5420    0.5350    0.9330 C   0  0  0  0  0  0  0  0  0  0  0  0
    4.7400    1.2240    0.0380 C   0  0  0  0  0  0  0  0  0  0  0  0
    5.1260    2.5150   -0.5770 C   0  0  0  0  0  0  0  0  0  0  0  0
    3.5210    0.6790   -0.2970 C   0  0  0  0  0  0  0  0  0  0  0  0
    2.6700    1.2620   -1.1500 N   0  0  0  0  0  0  0  0  0  0  0  0
    1.4770    0.7110   -1.4650 C   0  0  0  0  0  0  0  0  0  0  0  0
    0.7350    1.3040   -2.2630 O   0  0  0  0  0  0  0  0  0  0  0  0
    1.0500   -0.4890   -0.9340 C   0  0  0  0  0  0  0  0  0  0  0  0
   -0.2400   -1.1060   -1.2570 C   0  0  0  0  0  0  0  0  0  0  0  0
   -1.3750   -0.4260   -0.5330 C   0  0  0  0  0  0  0  0  0  0  0  0
   -1.0940    0.5250    0.2190 O   0  0  0  0  0  0  0  0  0  0  0  0
   -2.7080   -0.8780   -0.7200 N   0  0  0  0  0  0  0  0  0  0  0  0
   -3.8220   -0.2770   -0.0600 C   0  0  1  0  0  0  0  0  0  0  0  0
   -3.6650   -0.4080    1.4340 C   0  0  0  0  0  0  0  0  0  0  0  0
   -3.5980   -1.7790    1.7220 O   0  0  0  0  0  0  0  0  0  0  0  0
   -4.0250    1.1710   -0.4700 C   0  0  0  0  0  0  0  0  0  0  0  0
   -5.4520    1.3980    0.0500 C   0  0  0  0  0  0  0  0  0  0  0  0
   -6.1610    0.0830   -0.2010 C   0  0  0  0  0  0  0  0  0  0  0  0
   -5.1060   -0.9230   -0.5200 C   0  0  0  0  0  0  0  0  0  0  0  0
    1.9040   -1.1200   -0.0500 C   0  0  0  0  0  0  0  0  0  0  0  0
    3.1170   -0.5250    0.2500 C   0  0  0  0  0  0  0  0  0  0  0  0
    3.9320   -1.1760    1.1270 C   0  0  0  0  0  0  0  0  0  0  0  0
  1  2  1  0
  2  3  2  0
  2 24  1  0
  3  4  1  0
  4  5  1  0
  4  6  2  0
  6  7  1  0
  6 23  1  0
  7  8  1  0
  8  9  2  0
  8 10  1  0
 10 11  1  0
 10 22  2  0
 11 12  1  0
 12 13  2  0
 12 14  1  0
 14 15  1  0
 15 16  1  1
 15 18  1  0
 15 21  1  0
 16 17  1  0
 18 19  1  0
 19 20  1  0
 20 21  1  0
 22 23  1  0
 23 24  2  0
M  END
