
     RDKit          3D

 21 22  0  0  0  0  0  0  0  0999 V2000
   -4.9420    1.2760    0.8200 N   0  0  0  0  0  0  0  0  0  0  0  0
   -3.7110    0.7510    0.3100 C   0  0  0  0  0  0  0  0  0  0  0  0
   -2.8480    0.1380    1.1010 C   0  0  0  0  0  0  0  0  0  0  0  0
   -1.6120   -0.4030    0.6530 N   0  0  0  0  0  0  0  0  0  0  0  0
   -0.8550   -0.9990    1.6530 N   0  0  0  0  0  0  0  0  0  0  0  0
   -1.2480   -0.3050   -0.7100 C   0  0  1  0  0  0  0  0  0  0  0  0
   -2.2580    0.3810   -1.4860 N   0  0  0  0  0  0  0  0  0  0  0  0
   -3.3530    0.8630   -1.0950 C   0  0  0  0  0  0  0  0  0  0  0  0
   -0.0630    0.5740   -0.8150 N   0  0  0  0  0  0  0  0  0  0  0  0
   -0.2120    1.6780    0.0380 N   0  0  0  0  0  0  0  0  0  0  0  0
    0.6410    1.9930    1.1030 C   0  0  0  0  0  0  0  0  0  0  0  0
    0.0840    2.4790    2.1480 O   0  0  0  0  0  0  0  0  0  0  0  0
    2.0340    1.8280    1.1280 N   0  0  0  0  0  0  0  0  0  0  0  0
    2.8530    1.5170   -0.0200 C   0  0  0  0  0  0  0  0  0  0  0  0
    3.6720    0.2710    0.3170 C   0  0  0  0  0  0  0  0  0  0  0  0
    3.3900   -0.7640   -0.5760 O   0  0  0  0  0  0  0  0  0  0  0  0
    2.3120   -1.5270   -0.2170 C   0  0  0  0  0  0  0  0  0  0  0  0
    1.4260   -1.8350   -1.3990 C   0  0  1  0  0  0  0  0  0  0  0  0
    2.0730   -2.8360   -2.1210 O   0  0  0  0  0  0  0  0  0  0  0  0
    0.0340   -2.2570   -0.9830 C   0  0  0  0  0  0  0  0  0  0  0  0
   -0.9520   -1.4340   -1.3860 O   0  0  0  0  0  0  0  0  0  0  0  0
  1  2  1  0
  2  3  2  0
  2  8  1  0
  3  4  1  0
  4  5  1  0
  4  6  1  0
  6  7  1  0
  6  9  1  1
  6 21  1  0
  7  8  2  0
  9 10  1  0
 10 11  1  0
 11 12  2  0
 11 13  1  0
 13 14  1  0
 14 15  1  0
 15 16  1  0
 16 17  1  0
 17 18  1  0
 18 19  1  1
 18 20  1  0
 20 21  1  0
M  END
