
     RDKit          3D

 21 22  0  0  0  0  0  0  0  0999 V2000
    6.0630    0.0510   -2.7390 N   0  0  0  0  0  0  0  0  0  0  0  0
    5.8960    0.8050   -1.5520 C   0  0  0  0  0  0  0  0  0  0  0  0
    6.7500    1.6280   -1.1380 O   0  0  0  0  0  0  0  0  0  0  0  0
    4.6830    0.6200   -0.7750 C   0  0  0  0  0  0  0  0  0  0  0  0
    3.8340   -0.2400   -1.2440 N   0  0  0  0  0  0  0  0  0  0  0  0
    2.5690   -0.6780   -0.7740 C   0  0  0  0  0  0  0  0  0  0  0  0
    1.8540   -0.1940    0.2380 C   0  0  0  0  0  0  0  0  0  0  0  0
    0.6090   -0.8220    0.4990 N   0  0  0  0  0  0  0  0  0  0  0  0
   -0.6380   -0.1410    0.4520 C   0  0  0  0  0  0  0  0  0  0  0  0
   -0.6540    1.0800    0.1660 O   0  0  0  0  0  0  0  0  0  0  0  0
   -1.8760   -0.7800    0.7160 N   0  0  0  0  0  0  0  0  0  0  0  0
   -3.1550   -0.1610    0.6860 C   0  0  2  0  0  0  0  0  0  0  0  0
   -3.9410   -0.2770    1.9660 C   0  0  0  0  0  0  0  0  0  0  0  0
   -5.2460    0.2370    1.5250 N   0  0  0  0  0  0  0  0  0  0  0  0
   -5.4280   -0.2100    0.1790 C   0  0  0  0  0  0  0  0  0  0  0  0
   -4.1170   -0.8100   -0.2870 C   0  0  1  0  0  0  0  0  0  0  0  0
   -3.8320   -0.4780   -1.6030 O   0  0  0  0  0  0  0  0  0  0  0  0
    2.1870    0.9090    1.1210 C   0  0  0  0  0  0  0  0  0  0  0  0
    1.2940    1.3040    1.9280 O   0  0  0  0  0  0  0  0  0  0  0  0
    3.4370    1.6240    1.1910 N   0  0  0  0  0  0  0  0  0  0  0  0
    4.5620    1.4080    0.4190 N   0  0  0  0  0  0  0  0  0  0  0  0
  1  2  1  0
  2  3  2  0
  2  4  1  0
  4  5  2  0
  4 21  1  0
  5  6  1  0
  6  7  2  0
  7  8  1  0
  7 18  1  0
  8  9  1  0
  9 10  2  0
  9 11  1  0
 12 11  1  1
 12 13  1  0
 12 16  1  0
 13 14  1  0
 14 15  1  0
 15 16  1  0
 16 17  1  6
 18 19  2  0
 18 20  1  0
 20 21  1  0
M  END
