
     RDKit          3D

 21 22  0  0  0  0  0  0  0  0999 V2000
    3.1980    2.6380   -1.3770 N   0  0  0  0  0  0  0  0  0  0  0  0
    2.8850    1.8610   -0.2420 C   0  0  0  0  0  0  0  0  0  0  0  0
    3.6600    1.8600    0.7330 O   0  0  0  0  0  0  0  0  0  0  0  0
    1.7060    1.0910   -0.2050 N   0  0  0  0  0  0  0  0  0  0  0  0
    1.6690   -0.1940   -0.2210 C   0  0  0  0  0  0  0  0  0  0  0  0
    2.8920   -0.8940   -0.2790 N   0  0  0  0  0  0  0  0  0  0  0  0
    0.4330   -0.9570   -0.1820 C   0  0  1  0  0  0  0  0  0  0  0  0
    0.3190   -1.8840    1.0000 C   0  0  0  0  0  0  0  0  0  0  0  0
   -0.7540   -2.8690    0.7080 C   0  0  0  0  0  0  0  0  0  0  0  0
   -2.0210   -2.3390    0.1510 C   0  0  0  0  0  0  0  0  0  0  0  0
   -1.9130   -1.1330   -0.7040 C   0  0  2  0  0  0  0  0  0  0  0  0
   -1.5170   -1.5350   -1.9820 O   0  0  0  0  0  0  0  0  0  0  0  0
   -0.8300   -0.1480   -0.2330 C   0  0  2  0  0  0  0  0  0  0  0  0
   -0.7790    0.9010   -1.2700 C   0  0  0  0  0  0  0  0  0  0  0  0
   -0.1950    0.5610   -2.3190 O   0  0  0  0  0  0  0  0  0  0  0  0
   -1.2780    2.2180   -1.2720 N   0  0  0  0  0  0  0  0  0  0  0  0
   -1.7430    2.9710   -0.2060 N   0  0  0  0  0  0  0  0  0  0  0  0
   -0.9210    2.9460    0.9020 N   0  0  0  0  0  0  0  0  0  0  0  0
   -0.9940    1.7260    1.5560 N   0  0  0  0  0  0  0  0  0  0  0  0
   -1.2280    0.4030    1.0890 C   0  0  0  0  0  0  0  0  0  0  0  0
   -1.8330   -0.3260    1.9170 O   0  0  0  0  0  0  0  0  0  0  0  0
  1  2  1  0
  2  3  2  0
  2  4  1  0
  4  5  2  3
  5  6  1  0
  7  5  1  1
  7  8  1  0
  7 13  1  0
  8  9  1  0
  9 10  1  0
 10 11  1  0
 11 12  1  6
 11 13  1  0
 13 14  1  6
 13 20  1  0
 14 15  2  0
 14 16  1  0
 16 17  1  0
 17 18  1  0
 18 19  1  0
 19 20  1  0
 20 21  2  0
M  END
