
     RDKit          3D

 21 22  0  0  0  0  0  0  0  0999 V2000
   -2.4680    3.0630   -0.6100 N   0  0  0  0  0  0  0  0  0  0  0  0
   -1.2060    2.3930   -0.4930 C   0  0  0  0  0  0  0  0  0  0  0  0
   -0.2270    3.1310   -0.5040 O   0  0  0  0  0  0  0  0  0  0  0  0
   -1.1490    0.9660   -0.3750 C   0  0  0  0  0  0  0  0  0  0  0  0
    0.0810    0.2780   -0.2460 N   0  0  0  0  0  0  0  0  0  0  0  0
    1.3800    0.7330   -0.1890 C   0  0  0  0  0  0  0  0  0  0  0  0
    1.6230    1.9500   -0.2550 O   0  0  0  0  0  0  0  0  0  0  0  0
    2.5330   -0.1620   -0.0520 C   0  0  0  0  0  0  0  0  0  0  0  0
    2.3740   -1.4270    0.0300 O   0  0  0  0  0  0  0  0  0  0  0  0
    3.8600    0.3190   -0.0060 N   0  0  0  0  0  0  0  0  0  0  0  0
    5.0050   -0.5310    0.1270 C   0  0  1  0  0  0  0  0  0  0  0  0
    4.6750   -1.8720    0.5630 N   0  0  0  0  0  0  0  0  0  0  0  0
    5.7820   -0.6550   -1.0920 N   0  0  0  0  0  0  0  0  0  0  0  0
    5.8390    0.0410    1.0910 O   0  0  0  0  0  0  0  0  0  0  0  0
   -2.2860    0.2450   -0.4020 C   0  0  0  0  0  0  0  0  0  0  0  0
   -3.6590    0.7280   -0.5440 C   0  0  0  0  0  0  0  0  0  0  0  0
   -4.4420   -0.5730   -0.7540 C   0  0  2  0  0  0  0  0  0  0  0  0
   -4.5950   -1.1810    0.5430 N   0  0  0  0  0  0  0  0  0  0  0  0
   -3.2430   -1.5350    0.9330 C   0  0  0  0  0  0  0  0  0  0  0  0
   -2.4080   -1.2140   -0.2860 C   0  0  1  0  0  0  0  0  0  0  0  0
   -3.4300   -1.4300   -1.3410 N   0  0  0  0  0  0  0  0  0  0  0  0
  1  2  1  0
  2  3  2  0
  2  4  1  0
  4  5  1  0
  4 15  2  3
  5  6  1  0
  6  7  2  0
  6  8  1  0
  8  9  2  0
  8 10  1  0
 10 11  1  0
 11 12  1  1
 11 13  1  0
 11 14  1  0
 15 16  1  0
 15 20  1  0
 17 16  1  1
 17 18  1  0
 17 21  1  0
 18 19  1  0
 20 19  1  1
 20 21  1  0
M  END
