
     RDKit          3D

 21 23  0  0  0  0  0  0  0  0999 V2000
    5.7220   -0.4720    0.1080 N   0  0  0  0  0  0  0  0  0  0  0  0
    4.6530   -0.1530   -0.7630 C   0  0  0  0  0  0  0  0  0  0  0  0
    4.7900    0.0730   -1.9870 O   0  0  0  0  0  0  0  0  0  0  0  0
    3.3740   -0.0860   -0.2380 O   0  0  0  0  0  0  0  0  0  0  0  0
    2.2390    0.2290   -1.0500 C   0  0  0  0  0  0  0  0  0  0  0  0
    1.0570    0.1920   -0.0680 C   0  0  2  0  0  0  0  0  0  0  0  0
    1.0270   -1.1370    0.4650 N   0  0  0  0  0  0  0  0  0  0  0  0
   -0.0220   -1.8570    0.6310 C   0  0  0  0  0  0  0  0  0  0  0  0
    0.0600   -3.1890    1.1800 N   0  0  0  0  0  0  0  0  0  0  0  0
   -1.2730   -1.3040    0.2570 N   0  0  0  0  0  0  0  0  0  0  0  0
   -2.5440   -1.9560    0.0020 C   0  0  0  0  0  0  0  0  0  0  0  0
   -3.4340   -0.9030   -0.6180 C   0  0  0  0  0  0  0  0  0  0  0  0
   -2.6840    0.3900   -0.5990 C   0  0  1  0  0  0  0  0  0  0  0  0
   -2.5120    0.9410   -1.8630 O   0  0  0  0  0  0  0  0  0  0  0  0
   -3.4080    1.3000    0.1690 O   0  0  0  0  0  0  0  0  0  0  0  0
   -1.3730    0.1080    0.0870 C   0  0  1  0  0  0  0  0  0  0  0  0
   -1.2880    0.8570    1.3130 N   0  0  0  0  0  0  0  0  0  0  0  0
   -0.7050    1.9860    1.1000 C   0  0  0  0  0  0  0  0  0  0  0  0
   -0.4120    3.0420    2.0360 N   0  0  0  0  0  0  0  0  0  0  0  0
   -0.3410    2.0940   -0.2810 N   0  0  0  0  0  0  0  0  0  0  0  0
   -0.1970    0.6840   -0.6880 C   0  0  1  0  0  0  0  0  0  0  0  0
  1  2  1  0
  2  3  2  0
  2  4  1  0
  4  5  1  0
  6  5  1  6
  6  7  1  0
  6 21  1  0
  7  8  2  0
  8  9  1  0
  8 10  1  0
 10 11  1  0
 10 16  1  0
 11 12  1  0
 12 13  1  0
 13 14  1  6
 13 15  1  0
 13 16  1  0
 16 17  1  1
 16 21  1  0
 17 18  2  0
 18 19  1  0
 18 20  1  0
 21 20  1  1
M  END
