
     RDKit          3D

 21 22  0  0  0  0  0  0  0  0999 V2000
   -2.1980   -3.8940   -0.4070 N   0  0  0  0  0  0  0  0  0  0  0  0
   -2.1510   -2.6890    0.3200 C   0  0  0  0  0  0  0  0  0  0  0  0
   -2.7380   -2.5800    1.4470 O   0  0  0  0  0  0  0  0  0  0  0  0
   -1.4550   -1.5180   -0.1440 N   0  0  0  0  0  0  0  0  0  0  0  0
   -1.4340   -0.3000    0.6390 C   0  0  1  0  0  0  0  0  0  0  0  0
   -0.1330    0.0710    1.0740 N   0  0  0  0  0  0  0  0  0  0  0  0
    0.9550    0.0960    0.4080 C   0  0  0  0  0  0  0  0  0  0  0  0
    0.9490   -0.2830   -0.9530 N   0  0  0  0  0  0  0  0  0  0  0  0
    2.2400    0.5260    1.0690 C   0  0  2  0  0  0  0  0  0  0  0  0
    2.7190    1.6460    0.3790 O   0  0  0  0  0  0  0  0  0  0  0  0
    3.9550    1.7190   -0.2100 C   0  0  0  0  0  0  0  0  0  0  0  0
    4.3610    2.7500   -0.8290 O   0  0  0  0  0  0  0  0  0  0  0  0
    4.8300    0.6040   -0.1330 N   0  0  0  0  0  0  0  0  0  0  0  0
    4.3830   -0.5260    0.5460 N   0  0  0  0  0  0  0  0  0  0  0  0
    3.2170   -0.5720    1.0920 C   0  0  0  0  0  0  0  0  0  0  0  0
    2.8940   -1.8080    1.7600 N   0  0  0  0  0  0  0  0  0  0  0  0
   -2.1230    0.7950   -0.1120 C   0  0  0  0  0  0  0  0  0  0  0  0
   -1.5760    1.9380   -0.4590 C   0  0  0  0  0  0  0  0  0  0  0  0
   -2.5960    2.7300   -1.1840 C   0  0  0  0  0  0  0  0  0  0  0  0
   -3.8810    2.0280   -0.8310 C   0  0  0  0  0  0  0  0  0  0  0  0
   -3.4320    0.7170   -0.5270 O   0  0  0  0  0  0  0  0  0  0  0  0
  1  2  1  0
  2  3  2  0
  2  4  1  0
  5  4  1  6
  5  6  1  0
  5 17  1  0
  6  7  2  3
  7  8  1  0
  9  7  1  6
  9 10  1  0
  9 15  1  0
 10 11  1  0
 11 12  2  0
 11 13  1  0
 13 14  1  0
 14 15  2  0
 15 16  1  0
 17 18  2  0
 17 21  1  0
 18 19  1  0
 19 20  1  0
 20 21  1  0
M  END
