
     RDKit          3D

 21 22  0  0  0  0  0  0  0  0999 V2000
   -1.8950    2.6710    0.5060 N   0  0  0  0  0  0  0  0  0  0  0  0
   -2.0470    1.4260    0.1080 C   0  0  0  0  0  0  0  0  0  0  0  0
   -3.3120    0.9700   -0.2940 N   0  0  0  0  0  0  0  0  0  0  0  0
   -3.6840   -0.4310   -0.2670 C   0  0  0  0  0  0  0  0  0  0  0  0
   -2.5020   -1.3330   -0.4280 C   0  0  0  0  0  0  0  0  0  0  0  0
   -1.3780   -0.8830    0.4490 C   0  0  1  0  0  0  0  0  0  0  0  0
   -0.2020   -1.8580    0.3870 C   0  0  0  0  0  0  0  0  0  0  0  0
    0.7510   -1.5080    1.4080 N   0  0  0  0  0  0  0  0  0  0  0  0
    2.1320   -1.8380    1.3720 C   0  0  0  0  0  0  0  0  0  0  0  0
    2.6580   -2.3440    2.4280 O   0  0  0  0  0  0  0  0  0  0  0  0
    2.9920   -1.6600    0.2700 N   0  0  0  0  0  0  0  0  0  0  0  0
    3.0920   -0.4690   -0.5450 C   0  0  0  0  0  0  0  0  0  0  0  0
    3.1090    0.7680    0.2520 C   0  0  0  0  0  0  0  0  0  0  0  0
    3.9680    0.7740    1.2070 O   0  0  0  0  0  0  0  0  0  0  0  0
    2.3120    1.9030    0.0840 N   0  0  0  0  0  0  0  0  0  0  0  0
    1.5170    2.2680   -1.0060 N   0  0  0  0  0  0  0  0  0  0  0  0
    0.6640    1.4080   -1.7380 C   0  0  0  0  0  0  0  0  0  0  0  0
    0.8080    1.4310   -3.0140 O   0  0  0  0  0  0  0  0  0  0  0  0
   -0.3260    0.5270   -1.2540 N   0  0  0  0  0  0  0  0  0  0  0  0
   -0.8870    0.4980    0.0800 C   0  0  1  0  0  0  0  0  0  0  0  0
   -0.0070    0.9860    1.0400 O   0  0  0  0  0  0  0  0  0  0  0  0
  1  2  2  0
  2  3  1  0
  2 20  1  0
  3  4  1  0
  4  5  1  0
  6  5  1  6
  6  7  1  0
  6 20  1  0
  7  8  1  0
  8  9  1  0
  9 10  2  0
  9 11  1  0
 11 12  1  0
 12 13  1  0
 13 14  2  0
 13 15  1  0
 15 16  1  0
 16 17  1  0
 17 18  2  0
 17 19  1  0
 19 20  1  0
 20 21  1  1
M  END
