
     RDKit          3D

 21 22  0  0  0  0  0  0  0  0999 V2000
    6.7660    1.5790    0.9190 N   0  0  0  0  0  0  0  0  0  0  0  0
    5.9930    0.8970   -0.0510 N   0  0  0  0  0  0  0  0  0  0  0  0
    4.9640   -0.0050    0.3210 C   0  0  0  0  0  0  0  0  0  0  0  0
    4.7030   -0.2290    1.5400 O   0  0  0  0  0  0  0  0  0  0  0  0
    4.1900   -0.6900   -0.6540 N   0  0  0  0  0  0  0  0  0  0  0  0
    3.1710   -1.5800   -0.2460 N   0  0  0  0  0  0  0  0  0  0  0  0
    1.8490   -1.3520   -0.7370 C   0  0  0  0  0  0  0  0  0  0  0  0
    1.6840   -0.3510   -1.5190 O   0  0  0  0  0  0  0  0  0  0  0  0
    0.7500   -2.1770   -0.3940 N   0  0  0  0  0  0  0  0  0  0  0  0
   -0.4800   -1.8010   -0.3690 C   0  0  0  0  0  0  0  0  0  0  0  0
   -1.4650   -2.7460   -0.0060 N   0  0  0  0  0  0  0  0  0  0  0  0
   -0.8230   -0.4330   -0.7320 C   0  0  1  0  0  0  0  0  0  0  0  0
   -1.3040   -0.1590   -2.1100 C   0  0  0  0  0  0  0  0  0  0  0  0
   -2.1980    0.0670   -0.9150 C   0  0  1  0  0  0  0  0  0  0  0  0
   -3.4160   -0.7280   -0.8780 C   0  0  0  0  0  0  0  0  0  0  0  0
   -3.6450   -1.6430   -1.6920 O   0  0  0  0  0  0  0  0  0  0  0  0
   -4.3770   -0.4460    0.1230 N   0  0  0  0  0  0  0  0  0  0  0  0
   -4.3410    0.7550    0.8970 C   0  0  0  0  0  0  0  0  0  0  0  0
   -3.4210    1.8170    0.4480 C   0  0  0  0  0  0  0  0  0  0  0  0
   -2.4820    1.5240   -0.6540 C   0  0  1  0  0  0  0  0  0  0  0  0
   -1.2430    2.1360   -0.3480 O   0  0  0  0  0  0  0  0  0  0  0  0
  1  2  1  0
  2  3  1  0
  3  4  2  0
  3  5  1  0
  5  6  1  0
  6  7  1  0
  7  8  2  0
  7  9  1  0
  9 10  2  3
 10 11  1  0
 12 10  1  6
 12 13  1  0
 12 14  1  0
 14 13  1  6
 14 15  1  0
 14 20  1  0
 15 16  2  0
 15 17  1  0
 17 18  1  0
 18 19  1  0
 19 20  1  0
 20 21  1  1
M  END
