
     RDKit          3D

 31 32  0  0  0  0  0  0  0  0999 V2000
   -5.4860   -2.0050   -1.7840 N   0  0  0  0  0  0  0  0  0  0  0  0
   -4.3230   -1.2040   -1.5260 C   0  0  0  0  0  0  0  0  0  0  0  0
   -3.8010   -0.5340   -2.5030 O   0  0  0  0  0  0  0  0  0  0  0  0
   -3.7620   -1.1700   -0.1940 C   0  0  2  0  0  0  0  0  0  0  0  0
   -4.5760   -0.4680    0.8960 C   0  0  0  0  0  0  0  0  0  0  0  0
   -4.9700    1.1980    0.6890 S   0  0  0  0  0  0  0  0  0  0  0  0
   -6.3770    1.8380   -0.0950 C   0  0  2  0  0  0  0  0  0  0  0  0
   -7.6030    1.8030    0.7110 N   0  0  0  0  0  0  0  0  0  0  0  0
   -8.0670    0.4500    0.7960 C   0  0  0  0  0  0  0  0  0  0  0  0
   -7.8180   -0.0180   -0.9430 S   0  0  0  0  0  0  0  0  0  0  0  0
   -9.1250    0.0890   -1.7090 O   0  0  0  0  0  0  0  0  0  0  0  0
   -6.7610    1.3410   -1.3870 N   0  0  0  0  0  0  0  0  0  0  0  0
   -2.4310   -0.5540   -0.1750 N   0  0  0  0  0  0  0  0  0  0  0  0
   -1.3660   -1.3090    0.1720 C   0  0  0  0  0  0  0  0  0  0  0  0
   -1.4900   -2.5830    0.4770 O   0  0  0  0  0  0  0  0  0  0  0  0
   -0.0650   -0.9870    0.2840 N   0  0  0  0  0  0  0  0  0  0  0  0
    1.2380   -0.6760    0.4000 C   0  0  0  0  0  0  0  0  0  0  0  0
    1.9420   -1.7190    0.7850 O   0  0  0  0  0  0  0  0  0  0  0  0
    1.8740    0.5110    0.1800 N   0  0  0  0  0  0  0  0  0  0  0  0
    3.2560    0.6080    0.3820 C   0  0  0  0  0  0  0  0  0  0  0  0
    4.1260    0.8650   -0.5480 C   0  0  0  0  0  0  0  0  0  0  0  0
    5.5900    0.9250   -0.1090 C   0  0  2  0  0  0  0  0  0  0  0  0
    6.5060    1.0900   -1.2660 C   0  0  0  0  0  0  0  0  0  0  0  0
    7.9430    1.2660   -0.9180 C   0  0  0  0  0  0  0  0  0  0  0  0
    8.6210    0.2080   -0.1970 C   0  0  0  0  0  0  0  0  0  0  0  0
    9.1480   -0.7630   -0.8190 O   0  0  0  0  0  0  0  0  0  0  0  0
    8.7330    0.1990    1.1910 O   0  0  0  0  0  0  0  0  0  0  0  0
    5.6950   -0.4530    0.5260 C   0  0  0  0  0  0  0  0  0  0  0  0
    6.3950   -1.3440    0.0830 O   0  0  0  0  0  0  0  0  0  0  0  0
    4.8620   -0.5610    1.7020 N   0  0  0  0  0  0  0  0  0  0  0  0
    3.7560    0.3960    1.7930 C   0  0  0  0  0  0  0  0  0  0  0  0
  1  2  1  0
  2  3  2  0
  2  4  1  0
  4  5  1  1
  4 13  1  0
  5  6  1  0
  7  6  1  1
  7  8  1  0
  7 12  1  0
  8  9  1  0
 10  9  1  1
 10 11  2  0
 10 12  1  0
 13 14  1  0
 14 15  2  0
 14 16  1  0
 16 17  1  0
 17 18  2  0
 17 19  1  0
 19 20  1  0
 20 21  2  0
 20 31  1  0
 21 22  1  0
 22 23  1  6
 22 28  1  0
 23 24  1  0
 24 25  1  0
 25 26  2  0
 25 27  1  0
 28 29  2  0
 28 30  1  0
 30 31  1  0
M  END
