
     RDKit          3D

 31 33  0  0  0  0  0  0  0  0999 V2000
   -5.4530   -1.6810   -0.4530 C   0  0  0  0  0  0  0  0  0  0  0  0
   -4.9180   -0.3550   -0.0370 C   0  0  0  0  0  0  0  0  0  0  0  0
   -3.4530   -0.4150    0.3540 C   0  0  0  0  0  0  0  0  0  0  0  0
   -3.2230   -1.2420    1.4380 O   0  0  0  0  0  0  0  0  0  0  0  0
   -2.5550    0.2770   -0.3120 C   0  0  0  0  0  0  0  0  0  0  0  0
   -3.0240    1.0360   -1.3540 O   0  0  0  0  0  0  0  0  0  0  0  0
   -3.3250    0.7230   -2.6560 C   0  0  0  0  0  0  0  0  0  0  0  0
   -1.1260    0.2890   -0.0060 C   0  0  2  0  0  0  0  0  0  0  0  0
   -0.7570   -0.9180    0.8590 C   0  0  2  0  0  0  0  0  0  0  0  0
   -0.8130   -0.6760    2.1910 F   0  0  0  0  0  0  0  0  0  0  0  0
    0.6580   -1.3040    0.4940 C   0  0  2  0  0  0  0  0  0  0  0  0
    0.7030   -2.5150   -0.1780 O   0  0  0  0  0  0  0  0  0  0  0  0
    1.1700   -3.4220    0.6580 O   0  0  0  0  0  0  0  0  0  0  0  0
    1.5280   -2.8270    1.8530 C   0  0  0  0  0  0  0  0  0  0  0  0
    1.8310   -3.4540    2.8910 O   0  0  0  0  0  0  0  0  0  0  0  0
    1.4740   -1.4600    1.6390 O   0  0  0  0  0  0  0  0  0  0  0  0
    1.1190   -0.2190   -0.4160 C   0  0  2  0  0  0  0  0  0  0  0  0
    2.1790   -0.6320   -1.3760 C   0  0  0  0  0  0  0  0  0  0  0  0
    3.4050   -1.1230   -0.7510 C   0  0  0  0  0  0  0  0  0  0  0  0
    3.7300   -2.3980   -0.8610 N   0  0  0  0  0  0  0  0  0  0  0  0
    4.3360   -0.3640   -0.0040 N   0  0  0  0  0  0  0  0  0  0  0  0
    4.8160   -0.8840    1.2510 C   0  0  0  0  0  0  0  0  0  0  0  0
    4.8140    0.9090   -0.4840 C   0  0  0  0  0  0  0  0  0  0  0  0
    1.5610    0.9700    0.3880 C   0  0  0  0  0  0  0  0  0  0  0  0
    0.5190    1.3620    1.3370 N   0  0  0  0  0  0  0  0  0  0  0  0
    1.0290    2.4660    2.0900 C   0  0  0  0  0  0  0  0  0  0  0  0
   -0.7080    1.5850    0.6640 C   0  0  2  0  0  0  0  0  0  0  0  0
   -1.7660    2.1300    1.5840 C   0  0  0  0  0  0  0  0  0  0  0  0
   -0.2000    0.0800   -1.1730 C   0  0  2  0  0  0  0  0  0  0  0  0
   -0.0450    1.2150   -2.1030 C   0  0  0  0  0  0  0  0  0  0  0  0
   -0.5770   -1.4150   -2.0610 Cl  0  0  0  0  0  0  0  0  0  0  0  0
  1  2  1  0
  2  3  1  0
  3  4  1  0
  3  5  2  3
  5  6  1  0
  8  5  1  6
  6  7  1  0
  8  9  1  0
  8 27  1  0
  8 29  1  0
  9 10  1  1
  9 11  1  0
 11 12  1  6
 11 16  1  0
 11 17  1  0
 12 13  1  0
 13 14  1  0
 14 15  2  0
 14 16  1  0
 17 18  1  6
 17 24  1  0
 17 29  1  0
 18 19  1  0
 19 20  2  0
 19 21  1  0
 21 22  1  0
 21 23  1  0
 24 25  1  0
 25 26  1  0
 25 27  1  0
 27 28  1  1
 29 30  1  6
 29 31  1  0
M  END
