
     RDKit          3D

 30 32  0  0  0  0  0  0  0  0999 V2000
   -0.3250    5.5350    1.6560 C   0  0  0  0  0  0  0  0  0  0  0  0
    0.8450    4.9120    0.9920 C   0  0  0  0  0  0  0  0  0  0  0  0
    1.0430    3.6510    1.0140 N   0  0  0  0  0  0  0  0  0  0  0  0
    0.3210    2.6880    1.5800 N   0  0  0  0  0  0  0  0  0  0  0  0
   -0.1730    1.5980    1.1790 C   0  0  0  0  0  0  0  0  0  0  0  0
   -0.9660    0.6750    2.0460 C   0  0  0  0  0  0  0  0  0  0  0  0
   -1.3550   -0.3600    1.3910 C   0  0  0  0  0  0  0  0  0  0  0  0
   -2.1760   -1.5160    1.9440 C   0  0  2  0  0  0  0  0  0  0  0  0
   -1.1950   -2.5900    2.3870 C   0  0  0  0  0  0  0  0  0  0  0  0
   -0.3430   -3.0270    1.4690 C   0  0  0  0  0  0  0  0  0  0  0  0
   -0.7360   -2.8950    0.0400 C   0  0  1  0  0  0  0  0  0  0  0  0
   -0.1960   -3.9820   -0.8290 C   0  0  0  0  0  0  0  0  0  0  0  0
   -2.1870   -2.8820    0.0060 N   0  0  0  0  0  0  0  0  0  0  0  0
   -2.8610   -2.1260    0.7700 C   0  0  0  0  0  0  0  0  0  0  0  0
   -4.2970   -1.8070    0.5660 C   0  0  0  0  0  0  0  0  0  0  0  0
   -0.2170   -1.5380   -0.3950 C   0  0  0  0  0  0  0  0  0  0  0  0
    0.7570   -1.5260   -1.0500 O   0  0  0  0  0  0  0  0  0  0  0  0
   -0.9070   -0.2830   -0.0100 C   0  0  1  0  0  0  0  0  0  0  0  0
   -2.0360   -0.1960   -0.8630 F   0  0  0  0  0  0  0  0  0  0  0  0
   -0.1370    0.9530   -0.1190 C   0  0  0  0  0  0  0  0  0  0  0  0
    0.4830    1.3940   -1.2390 C   0  0  0  0  0  0  0  0  0  0  0  0
    1.1690    2.5600   -1.2280 O   0  0  0  0  0  0  0  0  0  0  0  0
    1.0540    3.7340   -2.4870 Cl  0  0  0  0  0  0  0  0  0  0  0  0
    0.4220    0.6600   -2.4080 O   0  0  0  0  0  0  0  0  0  0  0  0
    1.5570    0.6150   -3.1460 O   0  0  0  0  0  0  0  0  0  0  0  0
    2.6100    1.0520   -2.4680 O   0  0  0  0  0  0  0  0  0  0  0  0
    3.5130    0.1860   -1.8910 C   0  0  0  0  0  0  0  0  0  0  0  0
    4.3470   -0.7140   -2.7280 C   0  0  0  0  0  0  0  0  0  0  0  0
    3.6590    0.1330   -0.5980 C   0  0  0  0  0  0  0  0  0  0  0  0
    3.7440   -0.0120    0.6460 O   0  0  0  0  0  0  0  0  0  0  0  0
  1  2  1  0
  2  3  2  3
  3  4  1  0
  4  5  2  3
  5  6  1  0
  5 20  1  0
  6  7  2  0
  7  8  1  0
  7 18  1  0
  8  9  1  0
  8 14  1  6
  9 10  2  0
 10 11  1  0
 11 12  1  6
 11 13  1  0
 11 16  1  0
 13 14  2  0
 14 15  1  0
 16 17  2  0
 16 18  1  0
 18 19  1  6
 18 20  1  0
 20 21  2  3
 21 22  1  0
 21 24  1  0
 22 23  1  0
 24 25  1  0
 25 26  1  0
 26 27  1  0
 27 28  1  0
 27 29  2  0
 29 30  2  0
M  END
