
     RDKit          3D

 31 32  0  0  0  0  0  0  0  0999 V2000
    4.7530    3.1730    1.5040 C   0  0  0  0  0  0  0  0  0  0  0  0
    5.1890    2.2450    0.4980 N   0  0  0  0  0  0  0  0  0  0  0  0
    4.9500    0.6070    1.0100 S   0  0  0  0  0  0  0  0  0  0  0  0
    4.0050    0.5270    2.1970 O   0  0  0  0  0  0  0  0  0  0  0  0
    4.3890   -0.3310   -0.3520 N   0  0  0  0  0  0  0  0  0  0  0  0
    5.3350   -1.0770   -1.1620 C   0  0  0  0  0  0  0  0  0  0  0  0
    3.0060   -0.3440   -0.6400 C   0  0  0  0  0  0  0  0  0  0  0  0
    2.1100   -1.1610   -0.1250 C   0  0  0  0  0  0  0  0  0  0  0  0
    2.4340   -2.2370    0.8790 C   0  0  0  0  0  0  0  0  0  0  0  0
    0.8000   -0.8330   -0.7040 C   0  0  1  0  0  0  0  0  0  0  0  0
    0.5490   -1.5380   -1.8700 F   0  0  0  0  0  0  0  0  0  0  0  0
   -0.2360   -1.0160    0.2120 O   0  0  0  0  0  0  0  0  0  0  0  0
   -0.6850   -2.3350   -0.0180 C   0  0  0  0  0  0  0  0  0  0  0  0
   -1.6070   -2.6980    1.1010 C   0  0  0  0  0  0  0  0  0  0  0  0
   -2.9100   -2.1650    0.7870 N   0  0  0  0  0  0  0  0  0  0  0  0
   -3.5580   -2.8090   -0.2910 C   0  0  0  0  0  0  0  0  0  0  0  0
   -3.0040   -0.7550    0.8470 C   0  0  0  0  0  0  0  0  0  0  0  0
   -3.2540   -0.0860   -0.4960 C   0  0  0  0  0  0  0  0  0  0  0  0
   -3.6210    1.3470   -0.3380 C   0  0  1  0  0  0  0  0  0  0  0  0
   -4.8420    1.6010   -1.2410 C   0  0  0  0  0  0  0  0  0  0  0  0
   -4.1560    1.6400    1.0750 C   0  0  0  0  0  0  0  0  0  0  0  0
   -2.5400    2.3150   -0.6420 C   0  0  0  0  0  0  0  0  0  0  0  0
   -2.6220    2.9190   -1.7470 O   0  0  0  0  0  0  0  0  0  0  0  0
   -1.5280    2.5520    0.1900 O   0  0  0  0  0  0  0  0  0  0  0  0
   -0.4280    1.9560    0.7000 C   0  0  0  0  0  0  0  0  0  0  0  0
   -0.4540    1.7260    1.9860 O   0  0  0  0  0  0  0  0  0  0  0  0
    0.7860    1.5330    0.0380 C   0  0  0  0  0  0  0  0  0  0  0  0
    1.8840    2.0200    0.5010 O   0  0  0  0  0  0  0  0  0  0  0  0
    0.9320    0.6150   -1.1020 C   0  0  2  0  0  0  0  0  0  0  0  0
   -0.0540    1.0060   -2.5100 Cl  0  0  0  0  0  0  0  0  0  0  0  0
    2.3740    0.6170   -1.5990 C   0  0  0  0  0  0  0  0  0  0  0  0
  1  2  1  0
  3  2  1  6
  3  4  2  0
  3  5  1  0
  5  6  1  0
  5  7  1  0
  7  8  2  0
  7 31  1  0
  8  9  1  0
  8 10  1  0
 10 11  1  6
 10 12  1  0
 10 29  1  0
 12 13  1  0
 13 14  1  0
 14 15  1  0
 15 16  1  0
 15 17  1  0
 17 18  1  0
 18 19  1  0
 19 20  1  6
 19 21  1  0
 19 22  1  0
 22 23  2  0
 22 24  1  0
 24 25  1  0
 25 26  2  0
 25 27  1  0
 27 28  2  0
 27 29  1  0
 29 30  1  6
 29 31  1  0
M  END
