
     RDKit          3D

 31 34  0  0  0  0  0  0  0  0999 V2000
    7.7780   -2.0110    0.1080 N   0  0  0  0  0  0  0  0  0  0  0  0
    6.8910   -2.7610   -0.8120 C   0  0  0  0  0  0  0  0  0  0  0  0
    7.3100   -3.9140   -1.1150 O   0  0  0  0  0  0  0  0  0  0  0  0
    5.6810   -2.2790   -1.2760 C   0  0  1  0  0  0  0  0  0  0  0  0
    4.5580   -3.0090   -0.5210 N   0  0  0  0  0  0  0  0  0  0  0  0
    3.8460   -1.9310   -0.3320 N   0  0  0  0  0  0  0  0  0  0  0  0
    3.2340   -1.2420   -0.2340 C   0  0  0  0  0  0  0  0  0  0  0  0
    2.6040    0.0060    0.0060 N   0  0  0  0  0  0  0  0  0  0  0  0
    1.1050   -0.1990   -0.2910 C   0  0  0  0  0  0  0  0  0  0  0  0
    0.7810   -1.3690   -0.7130 O   0  0  0  0  0  0  0  0  0  0  0  0
    0.2220    0.9360   -0.0480 C   0  0  1  0  0  0  0  0  0  0  0  0
   -0.3380    1.5610   -1.3040 C   0  0  0  0  0  0  0  0  0  0  0  0
   -0.8140    2.9460   -0.7930 C   0  0  0  0  0  0  0  0  0  0  0  0
   -1.0560    3.7910   -1.7990 O   0  0  0  0  0  0  0  0  0  0  0  0
   -1.0120    3.3450    0.4290 N   0  0  0  0  0  0  0  0  0  0  0  0
   -1.4200    4.7090    0.8630 C   0  0  1  0  0  0  0  0  0  0  0  0
   -0.5600    5.1840    1.9700 C   0  0  0  0  0  0  0  0  0  0  0  0
   -0.2870    5.7270    0.6020 C   0  0  0  0  0  0  0  0  0  0  0  0
   -0.9200    0.2530    0.8180 N   0  0  0  0  0  0  0  0  0  0  0  0
   -1.7510   -0.6920    0.1410 C   0  0  0  0  0  0  0  0  0  0  0  0
   -1.6000   -0.7370   -1.1650 O   0  0  0  0  0  0  0  0  0  0  0  0
   -2.6580   -1.5240    0.8200 C   0  0  0  0  0  0  0  0  0  0  0  0
   -4.0550   -1.6510    0.3390 C   0  0  2  0  0  0  0  0  0  0  0  0
   -4.6610   -0.3340    0.5150 O   0  0  0  0  0  0  0  0  0  0  0  0
   -4.7260   -2.6260    1.1730 C   0  0  0  0  0  0  0  0  0  0  0  0
   -5.2580   -3.9430    0.0320 S   0  0  0  0  0  0  0  0  0  0  0  0
   -4.0380   -4.9910    0.0380 O   0  0  0  0  0  0  0  0  0  0  0  0
   -4.9910   -2.9970   -1.4590 N   0  0  0  0  0  0  0  0  0  0  0  0
   -4.3720   -1.9030   -1.0630 C   0  0  0  0  0  0  0  0  0  0  0  0
   -4.0160   -0.9220   -1.8800 O   0  0  0  0  0  0  0  0  0  0  0  0
    5.0360   -0.6130   -1.2820 S   0  0  2  0  0  0  0  0  0  0  0  0
  1  2  1  0
  2  3  2  0
  4  2  1  1
  4  5  1  0
  4 31  1  0
  5  6  1  0
  6  7  2  0
  7  8  1  0
 31  7  1  6
  8  9  1  0
  9 10  2  0
  9 11  1  0
 11 12  1  6
 11 19  1  0
 12 13  1  0
 13 14  2  0
 13 15  1  0
 16 15  1  6
 16 17  1  0
 16 18  1  0
 17 18  1  0
 19 20  1  0
 20 21  2  0
 20 22  1  0
 22 23  1  0
 23 24  1  1
 23 25  1  0
 23 29  1  0
 26 25  1  1
 26 27  2  0
 26 28  1  0
 28 29  1  0
 29 30  2  0
 31  6  1  0
M  CHG  1   6   1
M  END
