
     RDKit          3D

 30 31  0  0  0  0  0  0  0  0999 V2000
    5.0910    1.1570    1.2320 C   0  0  0  0  0  0  0  0  0  0  0  0
    4.8320    0.9830   -0.2490 C   0  0  2  0  0  0  0  0  0  0  0  0
    3.4810    1.5770   -0.5660 C   0  0  0  0  0  0  0  0  0  0  0  0
    2.4430    0.8990    0.1940 N   0  0  0  0  0  0  0  0  0  0  0  0
    1.0910    1.2860    0.0690 C   0  0  0  0  0  0  0  0  0  0  0  0
    0.8390    2.2360   -0.7250 O   0  0  0  0  0  0  0  0  0  0  0  0
   -0.0060    0.6380    0.8130 C   0  0  0  0  0  0  0  0  0  0  0  0
   -1.2580    1.0750    0.6670 N   0  0  0  0  0  0  0  0  0  0  0  0
   -2.3250    0.5530    1.2990 N   0  0  0  0  0  0  0  0  0  0  0  0
   -3.6310    1.1210    1.0350 C   0  0  0  0  0  0  0  0  0  0  0  0
   -4.3380    0.5620   -0.1540 C   0  0  0  0  0  0  0  0  0  0  0  0
   -4.6990   -0.8730   -0.1340 C   0  0  1  0  0  0  0  0  0  0  0  0
   -5.6080   -1.2780    0.9100 N   0  0  0  0  0  0  0  0  0  0  0  0
   -6.9440   -0.9250    0.5910 C   0  0  0  0  0  0  0  0  0  0  0  0
   -7.7360   -0.3030    1.3680 O   0  0  0  0  0  0  0  0  0  0  0  0
   -7.3390   -1.3600   -0.7720 C   0  0  1  0  0  0  0  0  0  0  0  0
   -8.3330   -0.4700   -1.4010 C   0  0  0  0  0  0  0  0  0  0  0  0
   -8.1280    0.8940   -1.6560 N   0  0  0  0  0  0  0  0  0  0  0  0
   -9.4390   -0.9740   -1.7300 O   0  0  0  0  0  0  0  0  0  0  0  0
   -5.7270   -1.3040   -1.6100 S   0  0  0  0  0  0  0  0  0  0  0  0
   -2.0880   -0.4710    2.1240 C   0  0  0  0  0  0  0  0  0  0  0  0
   -3.0380   -0.9920    2.7380 O   0  0  0  0  0  0  0  0  0  0  0  0
   -0.7990   -0.9610    2.3070 C   0  0  0  0  0  0  0  0  0  0  0  0
   -0.6270   -1.9370    3.1010 O   0  0  0  0  0  0  0  0  0  0  0  0
    0.2080   -0.3860    1.6400 N   0  0  0  0  0  0  0  0  0  0  0  0
    4.8100   -0.7580   -0.7130 S   0  0  0  0  0  0  0  0  0  0  0  0
    6.4490   -1.5210   -0.5150 C   0  0  0  0  0  0  0  0  0  0  0  0
    7.4530   -0.9450   -1.4880 C   0  0  2  0  0  0  0  0  0  0  0  0
    8.7120   -1.6230   -1.2400 N   0  0  0  0  0  0  0  0  0  0  0  0
    7.6480    0.4130   -1.2730 O   0  0  0  0  0  0  0  0  0  0  0  0
  2  1  1  1
  2  3  1  0
  2 26  1  0
  3  4  1  0
  4  5  1  0
  5  6  2  0
  5  7  1  0
  7  8  2  0
  7 25  1  0
  8  9  1  0
  9 10  1  0
  9 21  1  0
 10 11  1  0
 12 11  1  1
 12 13  1  0
 12 20  1  0
 13 14  1  0
 14 15  2  0
 14 16  1  0
 16 17  1  6
 16 20  1  0
 17 18  1  0
 17 19  2  0
 21 22  2  0
 21 23  1  0
 23 24  2  0
 23 25  1  0
 26 27  1  0
 27 28  1  0
 28 29  1  1
 28 30  1  0
M  END
