
     RDKit          3D

 31 34  0  0  0  0  0  0  0  0999 V2000
    1.3210   -2.0670   -2.2010 C   0  0  0  0  0  0  0  0  0  0  0  0
    1.6410   -1.4250   -1.0330 O   0  0  0  0  0  0  0  0  0  0  0  0
    0.5000   -1.2160   -0.2360 C   0  0  2  0  0  0  0  0  0  0  0  0
   -0.1520   -2.4140    0.1370 N   0  0  0  0  0  0  0  0  0  0  0  0
   -1.2120   -3.1190   -0.4760 C   0  0  0  0  0  0  0  0  0  0  0  0
   -2.4770   -2.7750   -0.5760 C   0  0  0  0  0  0  0  0  0  0  0  0
   -3.1300   -1.5850   -0.0850 C   0  0  0  0  0  0  0  0  0  0  0  0
   -2.8530   -1.0500    1.0840 C   0  0  0  0  0  0  0  0  0  0  0  0
   -3.4480   -0.0120    1.5780 C   0  0  0  0  0  0  0  0  0  0  0  0
   -3.8720    1.1740    0.8520 C   0  0  0  0  0  0  0  0  0  0  0  0
   -5.2720    1.6500    1.2040 C   0  0  0  0  0  0  0  0  0  0  0  0
   -3.1510    1.8230   -0.0410 C   0  0  0  0  0  0  0  0  0  0  0  0
   -3.8000    3.0180   -0.6580 C   0  0  0  0  0  0  0  0  0  0  0  0
   -1.9070    1.4950   -0.4250 O   0  0  0  0  0  0  0  0  0  0  0  0
   -0.9240    0.7470    0.0620 N   0  0  0  0  0  0  0  0  0  0  0  0
   -0.2870   -0.1380   -0.8780 C   0  0  1  0  0  0  0  0  0  0  0  0
    0.4190    1.0850   -0.5100 C   0  0  1  0  0  0  0  0  0  0  0  0
    0.5210    2.1920   -1.2770 F   0  0  0  0  0  0  0  0  0  0  0  0
    1.5120    0.7350    0.4700 C   0  0  2  0  0  0  0  0  0  0  0  0
    1.7050    1.7120    1.5420 C   0  0  0  0  0  0  0  0  0  0  0  0
    2.0870    2.8310    1.2660 O   0  0  0  0  0  0  0  0  0  0  0  0
    1.4150    1.3620    3.2430 Cl  0  0  0  0  0  0  0  0  0  0  0  0
    2.7900    0.3350   -0.1940 C   0  0  0  0  0  0  0  0  0  0  0  0
    3.3410    0.7820   -1.1540 O   0  0  0  0  0  0  0  0  0  0  0  0
    3.2410   -0.8140    0.6630 C   0  0  1  0  0  0  0  0  0  0  0  0
    4.4040   -0.1610    1.8800 S   0  0  0  0  0  0  0  0  0  0  0  0
    5.9180    0.4190    1.1760 C   0  0  0  0  0  0  0  0  0  0  0  0
    6.2220    0.3610   -0.2690 C   0  0  0  0  0  0  0  0  0  0  0  0
    6.7470    0.8940    1.9580 O   0  0  0  0  0  0  0  0  0  0  0  0
    2.1190   -1.2470    1.3500 O   0  0  0  0  0  0  0  0  0  0  0  0
    1.0520   -0.5520    0.9590 N   0  0  0  0  0  0  0  0  0  0  0  0
  1  2  1  0
  3  2  1  6
  3  4  1  0
  3 16  1  0
  3 31  1  0
  4  5  1  0
  5  6  2  0
  6  7  1  0
  7  8  2  0
  8  9  2  0
  9 10  1  0
 10 11  1  0
 10 12  2  0
 12 13  1  0
 12 14  1  0
 14 15  1  0
 16 15  1  1
 15 17  1  0
 16 17  1  0
 17 18  1  6
 17 19  1  0
 19 20  1  1
 19 23  1  0
 19 31  1  0
 20 21  2  0
 20 22  1  0
 23 24  2  0
 23 25  1  0
 25 26  1  1
 25 30  1  0
 26 27  1  0
 27 28  1  0
 27 29  2  0
 30 31  1  0
M  END
