
     RDKit          3D

 31 33  0  0  0  0  0  0  0  0999 V2000
    3.3210    0.7740   -1.3020 C   0  0  0  0  0  0  0  0  0  0  0  0
    3.4430    0.3360   -0.0640 C   0  0  0  0  0  0  0  0  0  0  0  0
    2.1510    0.0310    0.6320 C   0  0  0  0  0  0  0  0  0  0  0  0
    1.9620   -0.0900    1.8970 C   0  0  0  0  0  0  0  0  0  0  0  0
    0.5450   -0.3640    1.7490 C   0  0  0  0  0  0  0  0  0  0  0  0
    0.7540   -0.2270    0.3190 C   0  0  1  0  0  0  0  0  0  0  0  0
    0.0220    0.9540   -0.3130 C   0  0  0  0  0  0  0  0  0  0  0  0
   -1.4360    1.0100    0.0910 C   0  0  1  0  0  0  0  0  0  0  0  0
   -1.7280    2.2430    0.8690 C   0  0  0  0  0  0  0  0  0  0  0  0
   -1.5090    3.6010    0.2970 C   0  0  0  0  0  0  0  0  0  0  0  0
   -2.1580    2.1890    2.0070 O   0  0  0  0  0  0  0  0  0  0  0  0
   -2.3570    0.9560   -1.0790 C   0  0  0  0  0  0  0  0  0  0  0  0
   -3.2140   -0.2060   -1.1130 N   0  0  0  0  0  0  0  0  0  0  0  0
   -4.5750    0.2700   -1.2780 C   0  0  0  0  0  0  0  0  0  0  0  0
   -3.0520   -1.0760   -0.0580 N   0  0  0  0  0  0  0  0  0  0  0  0
   -3.9400   -0.7410    1.0670 C   0  0  0  0  0  0  0  0  0  0  0  0
   -3.3720   -2.3150   -0.4310 O   0  0  0  0  0  0  0  0  0  0  0  0
   -2.7320   -2.8020   -1.5400 C   0  0  2  0  0  0  0  0  0  0  0  0
   -2.2460   -1.7520   -2.2800 F   0  0  0  0  0  0  0  0  0  0  0  0
   -3.9990   -3.5730   -2.5630 Cl  0  0  0  0  0  0  0  0  0  0  0  0
   -1.7790   -3.7930   -1.2880 O   0  0  0  0  0  0  0  0  0  0  0  0
   -0.4490   -3.6480   -1.0290 C   0  0  0  0  0  0  0  0  0  0  0  0
    0.4490   -4.2770   -1.6480 O   0  0  0  0  0  0  0  0  0  0  0  0
   -0.0170   -2.7070    0.0330 C   0  0  0  0  0  0  0  0  0  0  0  0
    0.4970   -1.4330   -0.5270 C   0  0  0  0  0  0  0  0  0  0  0  0
    0.7250   -1.3440   -1.7150 O   0  0  0  0  0  0  0  0  0  0  0  0
    2.9740    0.0470    2.9010 O   0  0  0  0  0  0  0  0  0  0  0  0
    4.2850    0.1650    2.8170 O   0  0  0  0  0  0  0  0  0  0  0  0
    4.7160    0.9360    1.7600 C   0  0  0  0  0  0  0  0  0  0  0  0
    4.7220    0.1840    0.5080 N   0  0  2  0  0  0  0  0  0  0  0  0
    5.7980    0.5610   -0.3480 C   0  0  0  0  0  0  0  0  0  0  0  0
  1  2  2  0
  2  3  1  0
  2 30  1  0
  3  4  2  0
  3  6  1  0
  4  5  1  0
  4 27  1  0
  6  5  1  1
  6  7  1  0
  6 25  1  0
  7  8  1  0
  8  9  1  6
  8 12  1  0
  9 10  1  0
  9 11  2  0
 12 13  1  0
 13 14  1  0
 13 15  1  0
 15 16  1  0
 15 17  1  0
 17 18  1  0
 18 19  1  6
 18 20  1  0
 18 21  1  0
 21 22  1  0
 22 23  2  0
 22 24  1  0
 24 25  1  0
 25 26  2  0
 27 28  1  0
 28 29  1  0
 29 30  1  0
 30 31  1  6
M  CHG  1  30   1
M  END
