
     RDKit          3D

 32 33  0  0  0  0  0  0  0  0999 V2000
    7.9720    1.2360    1.4910 O   0  0  0  0  0  0  0  0  0  0  0  0
    8.3960    1.1710   -0.0050 P   0  0  0  0  0  0  0  0  0  0  0  0
    7.4760    0.0870   -1.1000 N   0  0  0  0  0  0  0  0  0  0  0  0
    6.0840   -0.1720   -0.8820 C   0  0  0  0  0  0  0  0  0  0  0  0
    5.2720   -0.9530   -1.6090 N   0  0  0  0  0  0  0  0  0  0  0  0
    4.0470   -0.9190   -1.0630 N   0  0  0  0  0  0  0  0  0  0  0  0
    4.0670   -0.1190    0.0120 C   0  0  0  0  0  0  0  0  0  0  0  0
    2.9980    0.2100    0.8940 N   0  0  0  0  0  0  0  0  0  0  0  0
    1.6790   -0.3170    0.7120 C   0  0  0  0  0  0  0  0  0  0  0  0
    1.1450    0.1120   -0.6310 C   0  0  0  0  0  0  0  0  0  0  0  0
   -0.1600   -0.3750   -0.8790 O   0  0  0  0  0  0  0  0  0  0  0  0
   -1.2650   -0.1050   -0.1250 C   0  0  0  0  0  0  0  0  0  0  0  0
   -1.1380    0.6380    0.8830 O   0  0  0  0  0  0  0  0  0  0  0  0
   -2.5340   -0.5940   -0.3880 O   0  0  0  0  0  0  0  0  0  0  0  0
   -3.6650   -0.2870    0.4290 C   0  0  2  0  0  0  0  0  0  0  0  0
   -4.3330   -1.5480    0.9270 C   0  0  0  0  0  0  0  0  0  0  0  0
   -5.5880   -1.4710    0.3660 O   0  0  0  0  0  0  0  0  0  0  0  0
   -5.8620   -0.1550    0.0850 C   0  0  2  0  0  0  0  0  0  0  0  0
   -6.4400    0.5900    1.2590 C   0  0  0  0  0  0  0  0  0  0  0  0
   -5.5540    0.5780    2.3230 O   0  0  0  0  0  0  0  0  0  0  0  0
   -6.7460   -0.0480   -1.1340 C   0  0  0  0  0  0  0  0  0  0  0  0
   -8.0430   -0.7310   -0.9960 C   0  0  0  0  0  0  0  0  0  0  0  0
   -8.3100   -1.3360    0.0640 O   0  0  0  0  0  0  0  0  0  0  0  0
   -8.9340   -0.6840   -2.0460 O   0  0  0  0  0  0  0  0  0  0  0  0
   -4.6270    0.3890   -0.2890 O   0  0  0  0  0  0  0  0  0  0  0  0
    3.2780    1.3220    2.2910 P   0  0  0  0  0  0  0  0  0  0  0  0
    4.4420    0.5240    3.3220 O   0  0  0  0  0  0  0  0  0  0  0  0
    4.0880    2.7310    1.6290 O   0  0  0  0  0  0  0  0  0  0  0  0
    5.3330    0.3360    0.1120 N   0  0  0  0  0  0  0  0  0  0  0  0
    8.3180   -0.6650   -2.4660 P   0  0  0  0  0  0  0  0  0  0  0  0
    7.5960   -0.2750   -3.9900 O   0  0  0  0  0  0  0  0  0  0  0  0
    8.5600   -2.3530   -2.2660 O   0  0  0  0  0  0  0  0  0  0  0  0
  1  2  2  0
  2  3  1  0
  3  4  1  0
  3 30  1  0
  4  5  2  0
  4 29  1  0
  5  6  1  0
  6  7  2  0
  7  8  1  0
  7 29  1  0
  8  9  1  0
  8 26  1  0
  9 10  1  0
 10 11  1  0
 11 12  1  0
 12 13  2  0
 12 14  1  0
 15 14  1  6
 15 16  1  0
 15 25  1  0
 16 17  1  0
 17 18  1  0
 18 19  1  1
 18 21  1  0
 18 25  1  0
 19 20  1  0
 21 22  1  0
 22 23  2  0
 22 24  1  0
 26 27  1  0
 26 28  1  0
 30 31  1  0
 30 32  1  0
M  END
