
     RDKit          3D

 33 33  0  0  0  0  0  0  0  0999 V2000
    3.0710    0.0770   -0.8980 N   0  0  0  0  0  0  0  0  0  0  0  0
    3.3500   -1.1150   -0.5030 C   0  0  0  0  0  0  0  0  0  0  0  0
    4.6580   -1.6100   -0.8240 N   0  0  0  0  0  0  0  0  0  0  0  0
    5.8350   -0.5630   -1.6540 P   0  0  0  0  0  0  0  0  0  0  0  0
    7.4390   -0.8980   -1.0750 O   0  0  0  0  0  0  0  0  0  0  0  0
    5.4340    1.1140   -1.4160 O   0  0  0  0  0  0  0  0  0  0  0  0
    6.7830    1.8890   -0.6490 P   0  0  0  0  0  0  0  0  0  0  0  0
    7.9210    2.4030   -1.8550 O   0  0  0  0  0  0  0  0  0  0  0  0
    6.1680    3.2570    0.2200 O   0  0  0  0  0  0  0  0  0  0  0  0
    2.4620   -1.9390    0.2090 N   0  0  0  0  0  0  0  0  0  0  0  0
    1.0680   -1.9710   -0.1010 C   0  0  0  0  0  0  0  0  0  0  0  0
    0.3820   -0.7390    0.0720 N   0  0  0  0  0  0  0  0  0  0  0  0
    0.4050   -0.2160    1.4030 C   0  0  0  0  0  0  0  0  0  0  0  0
   -0.8860   -0.5610    2.1200 C   0  0  0  0  0  0  0  0  0  0  0  0
   -1.9030    0.1200    1.4650 O   0  0  0  0  0  0  0  0  0  0  0  0
   -2.0880   -0.5100    0.2360 C   0  0  1  0  0  0  0  0  0  0  0  0
   -2.8110   -1.7880    0.5040 C   0  0  0  0  0  0  0  0  0  0  0  0
   -3.1000   -2.5940   -0.4270 O   0  0  0  0  0  0  0  0  0  0  0  0
   -3.2040   -2.1550    1.7800 O   0  0  0  0  0  0  0  0  0  0  0  0
   -3.0990    0.3140   -0.6040 C   0  0  2  0  0  0  0  0  0  0  0  0
   -4.3180    0.4080    0.0680 O   0  0  0  0  0  0  0  0  0  0  0  0
   -4.8130    1.6540    0.4130 C   0  0  0  0  0  0  0  0  0  0  0  0
   -4.1360    2.6910    0.1050 O   0  0  0  0  0  0  0  0  0  0  0  0
   -6.0310    1.8670    1.0920 N   0  0  0  0  0  0  0  0  0  0  0  0
   -6.4670    3.2010    1.4100 C   0  0  0  0  0  0  0  0  0  0  0  0
   -5.7350    4.1760    1.0690 O   0  0  0  0  0  0  0  0  0  0  0  0
   -7.6640    3.4360    2.0790 O   0  0  0  0  0  0  0  0  0  0  0  0
   -3.2910   -0.2880   -1.9340 C   0  0  0  0  0  0  0  0  0  0  0  0
   -4.4680   -0.6290   -2.2670 O   0  0  0  0  0  0  0  0  0  0  0  0
   -2.3020   -0.5200   -2.8660 O   0  0  0  0  0  0  0  0  0  0  0  0
   -0.8740   -0.6520   -0.5950 C   0  0  0  0  0  0  0  0  0  0  0  0
    3.1710   -2.9480    1.5250 P   0  0  0  0  0  0  0  0  0  0  0  0
    3.7180   -2.1850    2.7710 O   0  0  0  0  0  0  0  0  0  0  0  0
  1  2  2  0
  2  3  1  0
  2 10  1  0
  3  4  1  0
  4  5  1  0
  4  6  1  0
  6  7  1  0
  7  8  1  0
  7  9  1  0
 10 11  1  0
 10 32  1  0
 11 12  1  0
 12 13  1  0
 12 31  1  0
 13 14  1  0
 14 15  1  0
 15 16  1  0
 16 17  1  1
 16 20  1  0
 16 31  1  0
 17 18  2  0
 17 19  1  0
 20 21  1  1
 20 28  1  0
 21 22  1  0
 22 23  2  0
 22 24  1  0
 24 25  1  0
 25 26  2  0
 25 27  1  0
 28 29  2  0
 28 30  1  0
 32 33  2  0
M  END
