
     RDKit          3D

 33 34  0  0  0  0  0  0  0  0999 V2000
    1.1720   -2.7920    3.5220 C   0  0  0  0  0  0  0  0  0  0  0  0
    1.1100   -2.7880    2.1070 O   0  0  0  0  0  0  0  0  0  0  0  0
    0.7430   -1.7130    1.3430 C   0  0  0  0  0  0  0  0  0  0  0  0
    0.4360   -0.6480    1.9110 O   0  0  0  0  0  0  0  0  0  0  0  0
    0.7250   -1.8630   -0.1570 C   0  0  2  0  0  0  0  0  0  0  0  0
    2.0500   -2.3380   -0.6240 C   0  0  0  0  0  0  0  0  0  0  0  0
    2.3170   -3.5570   -0.4770 O   0  0  0  0  0  0  0  0  0  0  0  0
    2.8980   -1.4140   -1.1850 O   0  0  0  0  0  0  0  0  0  0  0  0
    2.6860   -0.0230   -1.1480 C   0  0  2  0  0  0  0  0  0  0  0  0
    3.5490    0.6760   -2.1840 C   0  0  0  0  0  0  0  0  0  0  0  0
    3.6160    1.9650   -1.7050 O   0  0  0  0  0  0  0  0  0  0  0  0
    3.6130    1.9240   -0.3730 N   0  0  0  0  0  0  0  0  0  0  0  0
    3.8890    2.9800    0.4160 O   0  0  0  0  0  0  0  0  0  0  0  0
    5.4450    3.5820    0.0230 P   0  0  0  0  0  0  0  0  0  0  0  0
    6.0260    2.8240   -1.4110 O   0  0  0  0  0  0  0  0  0  0  0  0
    5.3080    5.3150   -0.1990 O   0  0  0  0  0  0  0  0  0  0  0  0
    3.2750    0.6000    0.0950 C   0  0  0  0  0  0  0  0  0  0  0  0
    3.4300    0.1070    1.2230 O   0  0  0  0  0  0  0  0  0  0  0  0
    1.2600    0.3800   -1.2180 C   0  0  0  0  0  0  0  0  0  0  0  0
    0.3130   -0.6290   -0.7860 N   0  0  0  0  0  0  0  0  0  0  0  0
   -1.0650   -0.3580   -1.0040 C   0  0  0  0  0  0  0  0  0  0  0  0
   -1.4360    0.7230   -1.5490 O   0  0  0  0  0  0  0  0  0  0  0  0
   -2.0670   -1.3700   -0.5770 C   0  0  0  0  0  0  0  0  0  0  0  0
   -3.3990   -0.9370   -0.8620 N   0  0  0  0  0  0  0  0  0  0  0  0
   -3.9610    0.1530   -0.1630 C   0  0  0  0  0  0  0  0  0  0  0  0
   -4.4560    1.1330   -0.8200 N   0  0  0  0  0  0  0  0  0  0  0  0
   -3.9980    0.2030    1.2750 N   0  0  0  0  0  0  0  0  0  0  0  0
   -4.4970    1.7220    2.0580 P   0  0  0  0  0  0  0  0  0  0  0  0
   -3.5890    2.0040    3.4920 O   0  0  0  0  0  0  0  0  0  0  0  0
   -6.1920    1.8210    2.3220 O   0  0  0  0  0  0  0  0  0  0  0  0
   -4.3700   -1.7700   -2.1090 P   0  0  0  0  0  0  0  0  0  0  0  0
   -5.3830   -0.6770   -2.9880 O   0  0  0  0  0  0  0  0  0  0  0  0
   -3.3680   -2.6770   -3.1950 O   0  0  0  0  0  0  0  0  0  0  0  0
  1  2  1  0
  2  3  1  0
  3  4  2  0
  5  3  1  1
  5  6  1  0
  5 20  1  0
  6  7  2  0
  6  8  1  0
  8  9  1  0
  9 10  1  6
  9 17  1  0
  9 19  1  0
 10 11  1  0
 11 12  1  0
 12 13  1  0
 12 17  1  0
 13 14  1  0
 14 15  1  0
 14 16  1  0
 17 18  2  0
 19 20  1  0
 20 21  1  0
 21 22  2  0
 21 23  1  0
 23 24  1  0
 24 25  1  0
 24 31  1  0
 25 26  2  0
 25 27  1  0
 27 28  1  0
 28 29  1  0
 28 30  1  0
 31 32  1  0
 31 33  1  0
M  END
