
     RDKit          3D

 32 33  0  0  0  0  0  0  0  0999 V2000
    3.7760   -3.0260    1.8750 N   0  0  0  0  0  0  0  0  0  0  0  0
    3.1900   -2.3690    0.7410 C   0  0  0  0  0  0  0  0  0  0  0  0
    3.3650   -2.9700   -0.3580 O   0  0  0  0  0  0  0  0  0  0  0  0
    2.4810   -1.1580    0.8570 N   0  0  0  0  0  0  0  0  0  0  0  0
    1.9040   -0.5230   -0.2840 C   0  0  1  0  0  0  0  0  0  0  0  0
    3.1830    0.0420   -1.5050 P   0  0  0  0  0  0  0  0  0  0  0  0
    4.7790   -0.3310   -1.0060 O   0  0  0  0  0  0  0  0  0  0  0  0
    5.1070    0.0720    0.6290 P   0  0  0  0  0  0  0  0  0  0  0  0
    4.8120    1.4400    1.2720 O   0  0  0  0  0  0  0  0  0  0  0  0
    2.9700    1.6710   -1.9880 O   0  0  0  0  0  0  0  0  0  0  0  0
    4.4460    2.5580   -2.0610 P   0  0  0  0  0  0  0  0  0  0  0  0
    4.4610    3.7400   -0.7780 O   0  0  0  0  0  0  0  0  0  0  0  0
    5.8080    1.4930   -1.9130 O   0  0  0  0  0  0  0  0  0  0  0  0
    0.8720   -1.4080   -0.9490 C   0  0  0  0  0  0  0  0  0  0  0  0
   -0.2710   -1.5230   -0.1450 O   0  0  0  0  0  0  0  0  0  0  0  0
   -0.9980   -0.3460   -0.0770 C   0  0  2  0  0  0  0  0  0  0  0  0
   -1.5500   -0.2000    1.3480 C   0  0  0  0  0  0  0  0  0  0  0  0
   -2.5840    0.8200    1.3830 N   0  0  0  0  0  0  0  0  0  0  0  0
   -2.5290    1.9070    2.3080 C   0  0  0  0  0  0  0  0  0  0  0  0
   -3.5350    2.9030    2.3440 N   0  0  0  0  0  0  0  0  0  0  0  0
   -1.5700    1.9790    3.1030 O   0  0  0  0  0  0  0  0  0  0  0  0
   -3.6550    0.6930    0.4590 C   0  0  0  0  0  0  0  0  0  0  0  0
   -4.7940    1.1450    0.7710 O   0  0  0  0  0  0  0  0  0  0  0  0
   -3.3900    0.0590   -0.7820 N   0  0  0  0  0  0  0  0  0  0  0  0
   -4.4940   -0.0650   -1.7200 C   0  0  0  0  0  0  0  0  0  0  0  0
   -5.1740   -1.4000   -1.4100 C   0  0  0  0  0  0  0  0  0  0  0  0
   -4.2930   -2.4550   -1.5640 O   0  0  0  0  0  0  0  0  0  0  0  0
   -2.0960   -0.4130   -1.0470 C   0  0  0  0  0  0  0  0  0  0  0  0
   -1.8490   -0.9260   -2.1770 O   0  0  0  0  0  0  0  0  0  0  0  0
   -0.1650    0.7820   -0.2710 O   0  0  0  0  0  0  0  0  0  0  0  0
    1.1570    0.7140    0.1320 C   0  0  0  0  0  0  0  0  0  0  0  0
    1.7400    1.6200    0.8120 O   0  0  0  0  0  0  0  0  0  0  0  0
  1  2  1  0
  2  3  2  0
  2  4  1  0
  5  4  1  1
  5  6  1  0
  5 14  1  0
  5 31  1  0
  6  7  1  0
  6 10  1  0
  7  8  1  0
  8  9  2  0
 10 11  1  0
 11 12  1  0
 11 13  1  0
 14 15  1  0
 15 16  1  0
 16 17  1  1
 16 28  1  0
 16 30  1  0
 17 18  1  0
 18 19  1  0
 18 22  1  0
 19 20  1  0
 19 21  2  0
 22 23  2  0
 22 24  1  0
 24 25  1  0
 24 28  1  0
 25 26  1  0
 26 27  1  0
 28 29  2  0
 30 31  1  0
 31 32  2  0
M  END
