
     RDKit          3D

 33 33  0  0  0  0  0  0  0  0999 V2000
    5.9260   -0.4260   -1.4300 N   0  0  0  0  0  0  0  0  0  0  0  0
    4.8790    0.2110   -0.9320 C   0  0  0  0  0  0  0  0  0  0  0  0
    3.7900   -0.2570   -1.6250 N   0  0  0  0  0  0  0  0  0  0  0  0
    2.5080   -0.4180   -1.1890 C   0  0  0  0  0  0  0  0  0  0  0  0
    2.4440   -0.1840    0.0540 O   0  0  0  0  0  0  0  0  0  0  0  0
    1.4340   -0.7920   -1.9910 N   0  0  0  0  0  0  0  0  0  0  0  0
    0.1370   -0.9620   -1.4310 C   0  0  2  0  0  0  0  0  0  0  0  0
   -0.3660   -2.4030   -1.6120 C   0  0  0  0  0  0  0  0  0  0  0  0
    0.0340   -3.2560   -0.4300 C   0  0  0  0  0  0  0  0  0  0  0  0
   -0.8070   -4.3580   -0.2820 O   0  0  0  0  0  0  0  0  0  0  0  0
   -1.9150   -4.0730    0.5110 C   0  0  0  0  0  0  0  0  0  0  0  0
   -3.0140   -3.7020   -0.2500 O   0  0  0  0  0  0  0  0  0  0  0  0
   -3.8060   -2.3940    0.6080 P   0  0  0  0  0  0  0  0  0  0  0  0
   -5.5180   -2.6630    0.5300 O   0  0  0  0  0  0  0  0  0  0  0  0
   -5.8640   -3.3960    1.5680 O   0  0  0  0  0  0  0  0  0  0  0  0
   -7.1770   -3.4050    1.6670 O   0  0  0  0  0  0  0  0  0  0  0  0
   -3.3420   -0.9320   -0.1540 O   0  0  0  0  0  0  0  0  0  0  0  0
   -2.4540   -0.1660    0.6050 C   0  0  0  0  0  0  0  0  0  0  0  0
   -1.9810    1.0080   -0.2130 C   0  0  1  0  0  0  0  0  0  0  0  0
   -3.2630    1.8650   -0.3700 C   0  0  0  0  0  0  0  0  0  0  0  0
   -3.0000    3.0340   -1.0460 O   0  0  0  0  0  0  0  0  0  0  0  0
   -1.0400    1.8310    0.6380 C   0  0  0  0  0  0  0  0  0  0  0  0
   -0.7930    3.0790    0.0930 O   0  0  0  0  0  0  0  0  0  0  0  0
    0.2740    3.9890    1.0780 P   0  0  0  0  0  0  0  0  0  0  0  0
   -0.4240    4.4460    2.5880 O   0  0  0  0  0  0  0  0  0  0  0  0
    1.0120    5.2980    0.2470 O   0  0  0  0  0  0  0  0  0  0  0  0
   -1.5530    0.7390   -1.5200 N   0  0  0  0  0  0  0  0  0  0  0  0
   -0.7540    0.0120   -2.1080 C   0  0  0  0  0  0  0  0  0  0  0  0
   -0.6130    0.0400   -3.4920 O   0  0  0  0  0  0  0  0  0  0  0  0
    5.1700    1.3490   -0.1860 N   0  0  0  0  0  0  0  0  0  0  0  0
    6.4430    1.3160    1.0550 P   0  0  0  0  0  0  0  0  0  0  0  0
    5.7830    1.2270    2.6230 O   0  0  0  0  0  0  0  0  0  0  0  0
    7.4800    2.6750    0.8400 O   0  0  0  0  0  0  0  0  0  0  0  0
  1  2  2  0
  2  3  1  0
  2 30  1  0
  3  4  1  0
  4  5  2  0
  4  6  1  0
  7  6  1  6
  7  8  1  0
  7 28  1  0
  8  9  1  0
  9 10  1  0
 10 11  1  0
 11 12  1  0
 12 13  1  0
 13 14  1  0
 13 17  1  0
 14 15  1  0
 15 16  1  0
 17 18  1  0
 18 19  1  0
 19 20  1  6
 19 22  1  0
 19 27  1  0
 20 21  1  0
 22 23  1  0
 23 24  1  0
 24 25  1  0
 24 26  1  0
 27 28  2  0
 28 29  1  0
 30 31  1  0
 31 32  1  0
 31 33  1  0
M  END
