
     RDKit          3D

 32 33  0  0  0  0  0  0  0  0999 V2000
    4.7800   -2.4800    2.9750 O   0  0  0  0  0  0  0  0  0  0  0  0
    5.8200   -1.6250    2.2190 P   0  0  0  0  0  0  0  0  0  0  0  0
    5.6850    0.1380    2.0160 N   0  0  0  0  0  0  0  0  0  0  0  0
    5.4450    0.4120    0.5940 C   0  0  1  0  0  0  0  0  0  0  0  0
    6.6760   -0.1500   -0.0800 C   0  0  0  0  0  0  0  0  0  0  0  0
    7.8170    0.2390    0.1690 O   0  0  0  0  0  0  0  0  0  0  0  0
    6.1460   -1.0780   -0.9140 O   0  0  0  0  0  0  0  0  0  0  0  0
    4.8450   -1.1330   -0.8340 N   0  0  0  0  0  0  0  0  0  0  0  0
    4.3270   -0.3090    0.0090 C   0  0  0  0  0  0  0  0  0  0  0  0
    2.9050   -0.4590   -0.0030 N   0  0  0  0  0  0  0  0  0  0  0  0
    1.9860    0.2550    0.7310 C   0  0  0  0  0  0  0  0  0  0  0  0
    2.5400    1.1030    1.4420 O   0  0  0  0  0  0  0  0  0  0  0  0
    0.6260   -0.0170    0.6100 N   0  0  0  0  0  0  0  0  0  0  0  0
   -0.2860    0.7020    1.2520 O   0  0  0  0  0  0  0  0  0  0  0  0
   -1.2790    1.2010    0.4530 C   0  0  1  0  0  0  0  0  0  0  0  0
   -2.6070    0.7600    1.0920 C   0  0  0  0  0  0  0  0  0  0  0  0
   -3.6960    1.2160    0.3540 O   0  0  0  0  0  0  0  0  0  0  0  0
   -1.1840    2.7090    0.4710 C   0  0  0  0  0  0  0  0  0  0  0  0
   -2.1330    3.3330   -0.2980 O   0  0  0  0  0  0  0  0  0  0  0  0
   -1.8840    5.0460   -0.1670 P   0  0  0  0  0  0  0  0  0  0  0  0
   -2.9560    5.9110   -1.1940 O   0  0  0  0  0  0  0  0  0  0  0  0
   -1.9110    5.5940    1.4620 O   0  0  0  0  0  0  0  0  0  0  0  0
   -1.3290    0.6530   -0.9540 C   0  0  0  0  0  0  0  0  0  0  0  0
   -1.0210   -0.7570   -0.9980 N   0  0  0  0  0  0  0  0  0  0  0  0
   -1.6870   -1.7800   -1.7140 C   0  0  0  0  0  0  0  0  0  0  0  0
   -2.8110   -2.4190   -0.8970 C   0  0  2  0  0  0  0  0  0  0  0  0
   -2.3340   -2.9850    0.2630 O   0  0  0  0  0  0  0  0  0  0  0  0
   -3.6220   -3.7840   -1.8820 P   0  0  0  0  0  0  0  0  0  0  0  0
   -5.2030   -4.1180   -1.2560 O   0  0  0  0  0  0  0  0  0  0  0  0
   -2.6730   -5.2160   -1.9000 O   0  0  0  0  0  0  0  0  0  0  0  0
    0.1340   -1.0910   -0.1790 C   0  0  0  0  0  0  0  0  0  0  0  0
    0.6320   -2.2290   -0.1830 O   0  0  0  0  0  0  0  0  0  0  0  0
  1  2  2  0
  2  3  1  0
  4  3  1  1
  4  5  1  0
  4  9  1  0
  5  6  2  0
  5  7  1  0
  7  8  1  0
  8  9  2  0
  9 10  1  0
 10 11  1  0
 11 12  2  0
 11 13  1  0
 13 14  1  0
 13 31  1  0
 14 15  1  0
 15 16  1  1
 15 18  1  0
 15 23  1  0
 16 17  1  0
 18 19  1  0
 19 20  1  0
 20 21  1  0
 20 22  1  0
 23 24  1  0
 24 25  1  0
 24 31  1  0
 25 26  1  0
 26 27  1  1
 26 28  1  0
 28 29  1  0
 28 30  1  0
 31 32  2  0
M  END
