
     RDKit          3D

 33 33  0  0  0  0  0  0  0  0999 V2000
   -4.6320   -3.8990    1.3880 N   0  0  0  0  0  0  0  0  0  0  0  0
   -3.3920   -3.4830    0.9040 N   0  0  0  0  0  0  0  0  0  0  0  0
   -3.2960   -2.1690    0.3430 C   0  0  0  0  0  0  0  0  0  0  0  0
   -4.3180   -1.4520    0.3080 O   0  0  0  0  0  0  0  0  0  0  0  0
   -2.1360   -1.6510   -0.1610 O   0  0  0  0  0  0  0  0  0  0  0  0
   -1.9920   -0.3620   -0.7240 C   0  0  1  0  0  0  0  0  0  0  0  0
   -2.9030   -0.1830   -1.9340 C   0  0  0  0  0  0  0  0  0  0  0  0
   -2.7110    1.1090   -2.4420 O   0  0  0  0  0  0  0  0  0  0  0  0
   -3.7080    1.4010   -3.8190 P   0  0  0  0  0  0  0  0  0  0  0  0
   -5.0520    0.6140   -3.9240 O   0  0  0  0  0  0  0  0  0  0  0  0
   -2.2840    0.6500    0.1520 O   0  0  0  0  0  0  0  0  0  0  0  0
   -1.2660    0.9710    1.0440 C   0  0  2  0  0  0  0  0  0  0  0  0
   -1.8420    2.3520    2.1310 P   0  0  0  0  0  0  0  0  0  0  0  0
   -0.7800    2.5730    3.4890 O   0  0  0  0  0  0  0  0  0  0  0  0
   -1.9300    3.8600    1.2890 O   0  0  0  0  0  0  0  0  0  0  0  0
   -2.1010    5.1090    2.5110 P   0  0  0  0  0  0  0  0  0  0  0  0
   -1.8980    6.5760    2.0580 O   0  0  0  0  0  0  0  0  0  0  0  0
   -0.0190    1.4460    0.3170 C   0  0  0  0  0  0  0  0  0  0  0  0
    0.4050    0.3710   -0.5320 N   0  0  0  0  0  0  0  0  0  0  0  0
    1.7860   -0.0690   -0.7260 C   0  0  1  0  0  0  0  0  0  0  0  0
    2.6390    1.0780   -1.1390 C   0  0  0  0  0  0  0  0  0  0  0  0
    4.0300    0.7070   -1.3630 C   0  0  0  0  0  0  0  0  0  0  0  0
    4.4760   -0.4480   -1.2650 O   0  0  0  0  0  0  0  0  0  0  0  0
    4.9840    1.7250   -1.7230 N   0  0  0  0  0  0  0  0  0  0  0  0
    6.2740    1.4550   -1.9420 O   0  0  0  0  0  0  0  0  0  0  0  0
    2.2620   -0.6760    0.5690 C   0  0  0  0  0  0  0  0  0  0  0  0
    2.0210   -0.1030    1.6820 O   0  0  0  0  0  0  0  0  0  0  0  0
    2.9820   -1.8840    0.6580 N   0  0  0  0  0  0  0  0  0  0  0  0
    3.4340   -2.3970    1.9090 C   0  0  0  0  0  0  0  0  0  0  0  0
    3.1740   -1.7400    2.9430 O   0  0  0  0  0  0  0  0  0  0  0  0
    4.1330   -3.5780    1.9640 O   0  0  0  0  0  0  0  0  0  0  0  0
   -0.6020   -0.3080   -1.2560 C   0  0  0  0  0  0  0  0  0  0  0  0
   -0.3840   -0.8810   -2.3500 O   0  0  0  0  0  0  0  0  0  0  0  0
  1  2  1  0
  2  3  1  0
  3  4  2  0
  3  5  1  0
  5  6  1  0
  6  7  1  6
  6 11  1  0
  6 32  1  0
  7  8  1  0
  8  9  1  0
  9 10  2  0
 11 12  1  0
 12 13  1  1
 12 18  1  0
 13 14  1  0
 13 15  1  0
 15 16  1  0
 16 17  2  0
 18 19  1  0
 19 20  1  0
 19 32  1  0
 20 21  1  1
 20 26  1  0
 21 22  1  0
 22 23  2  0
 22 24  1  0
 24 25  1  0
 26 27  2  0
 26 28  1  0
 28 29  1  0
 29 30  2  0
 29 31  1  0
 32 33  2  0
M  END
