
     RDKit          3D

 33 36  0  0  0  0  0  0  0  0999 V2000
   -3.9690   -2.4160    1.8250 C   0  0  0  0  0  0  0  0  0  0  0  0
   -3.5350   -1.4250    0.7200 C   0  0  0  0  0  0  0  0  0  0  0  0
   -2.3020   -0.8710    1.2420 O   0  0  0  0  0  0  0  0  0  0  0  0
   -1.0710   -1.2920    0.2260 P   0  0  0  0  0  0  0  0  0  0  0  0
   -1.5120   -2.5000   -0.9340 O   0  0  0  0  0  0  0  0  0  0  0  0
    0.1790   -0.2120   -0.4480 C   0  0  1  0  0  0  0  0  0  0  0  0
    1.3320   -1.0580   -0.6970 N   0  0  0  0  0  0  0  0  0  0  0  0
    1.5400   -1.7290   -1.7940 C   0  0  0  0  0  0  0  0  0  0  0  0
    0.8690   -1.3240   -3.0700 N   0  0  0  0  0  0  0  0  0  0  0  0
    0.1180   -0.2210   -2.9450 C   0  0  0  0  0  0  0  0  0  0  0  0
   -0.1560    0.3970   -1.7340 N   0  0  0  0  0  0  0  0  0  0  0  0
   -0.7070    1.7350   -1.8140 C   0  0  0  0  0  0  0  0  0  0  0  0
   -1.3170    2.1170   -2.8210 O   0  0  0  0  0  0  0  0  0  0  0  0
   -0.5620    2.5680   -0.5840 C   0  0  2  0  0  0  0  0  0  0  0  0
   -1.9170    2.4200    0.0890 C   0  0  0  0  0  0  0  0  0  0  0  0
   -2.5910    3.1210   -1.1190 O   0  0  0  0  0  0  0  0  0  0  0  0
   -2.0960    4.2450   -1.0400 C   0  0  0  0  0  0  0  0  0  0  0  0
   -2.1570    5.5950   -0.9950 O   0  0  0  0  0  0  0  0  0  0  0  0
   -0.5400    3.9930   -0.7600 N   0  0  0  0  0  0  0  0  0  0  0  0
    0.5450    2.1530    0.0610 O   0  0  0  0  0  0  0  0  0  0  0  0
    0.6140    0.8800    0.5220 C   0  0  1  0  0  0  0  0  0  0  0  0
   -0.1710    0.8680    1.7180 O   0  0  0  0  0  0  0  0  0  0  0  0
    0.5590    1.9880    2.8040 P   0  0  0  0  0  0  0  0  0  0  0  0
    1.6490    2.9980    2.3720 O   0  0  0  0  0  0  0  0  0  0  0  0
    1.9090    0.6110    0.9610 O   0  0  0  0  0  0  0  0  0  0  0  0
    1.7650   -0.2220    1.9530 O   0  0  0  0  0  0  0  0  0  0  0  0
    2.9280   -0.5440    2.5930 C   0  0  0  0  0  0  0  0  0  0  0  0
    4.0320   -0.5970    1.7620 O   0  0  0  0  0  0  0  0  0  0  0  0
    4.2540   -1.8740    1.4960 O   0  0  0  0  0  0  0  0  0  0  0  0
    3.1880   -2.2960    0.8190 O   0  0  0  0  0  0  0  0  0  0  0  0
    3.7960   -2.9750   -0.6740 P   0  0  0  0  0  0  0  0  0  0  0  0
    5.2110   -2.0600   -1.0940 O   0  0  0  0  0  0  0  0  0  0  0  0
    2.4820   -2.7810   -1.9150 N   0  0  0  0  0  0  0  0  0  0  0  0
  1  2  1  0
  2  3  1  0
  3  4  1  0
  4  5  1  0
  6  4  1  1
  6  7  1  0
  6 11  1  0
  6 21  1  0
  7  8  2  0
  8  9  1  0
  8 33  1  0
  9 10  2  0
 10 11  1  0
 11 12  1  0
 12 13  2  0
 12 14  1  0
 14 15  1  1
 14 19  1  0
 14 20  1  0
 15 16  1  0
 16 17  1  0
 17 18  2  0
 17 19  1  0
 20 21  1  0
 21 22  1  1
 21 25  1  0
 22 23  1  0
 23 24  2  0
 25 26  1  0
 26 27  1  0
 27 28  1  0
 28 29  1  0
 29 30  1  0
 30 31  1  0
 31 32  1  0
 31 33  1  0
M  END
