
     RDKit          3D

 22 24  0  0  0  0  0  0  0  0999 V2000
    0.1280   -3.1690   -0.6370 C   0  0  0  0  0  0  0  0  0  0  0  0
    1.0930   -2.0890   -0.6360 N   0  0  0  0  0  0  0  0  0  0  0  0
    2.3510   -2.3220   -1.1190 N   0  0  0  0  0  0  0  0  0  0  0  0
    3.2920   -1.4330   -1.1680 C   0  0  0  0  0  0  0  0  0  0  0  0
    4.6580   -1.6770   -1.6910 C   0  0  0  0  0  0  0  0  0  0  0  0
    5.5470   -0.2730   -0.9560 S   0  0  0  0  0  0  0  0  0  0  0  0
    4.0410    0.7850   -0.8340 C   0  0  2  0  0  0  0  0  0  0  0  0
    4.1590    2.0000    0.4500 S   0  0  0  0  0  0  0  0  0  0  0  0
    2.5570    2.0950    1.2550 C   0  0  0  0  0  0  0  0  0  0  0  0
    1.4620    1.5110    0.3440 C   0  0  0  0  0  0  0  0  0  0  0  0
    1.7420    0.1710   -0.1710 C   0  0  0  0  0  0  0  0  0  0  0  0
    0.7720   -0.7520   -0.1320 C   0  0  0  0  0  0  0  0  0  0  0  0
   -0.6280   -0.5470    0.1190 C   0  0  0  0  0  0  0  0  0  0  0  0
   -1.3990   -1.5980    0.2880 O   0  0  0  0  0  0  0  0  0  0  0  0
   -1.3430    0.6530    0.2020 N   0  0  0  0  0  0  0  0  0  0  0  0
   -2.8060    0.6000    0.4990 C   0  0  1  0  0  0  0  0  0  0  0  0
   -3.4180   -0.2040   -0.6270 C   0  0  0  0  0  0  0  0  0  0  0  0
   -3.0500   -0.0290    1.8380 C   0  0  0  0  0  0  0  0  0  0  0  0
   -3.3500    1.9770    0.5270 C   0  0  0  0  0  0  0  0  0  0  0  0
   -4.7250    2.1960    0.7910 N   0  0  0  0  0  0  0  0  0  0  0  0
   -2.5520    2.9520    0.3090 O   0  0  0  0  0  0  0  0  0  0  0  0
    3.0040   -0.1730   -0.6950 N   0  0  0  0  0  0  0  0  0  0  0  0
  1  2  1  0
  2  3  1  0
  2 12  1  0
  3  4  2  0
  4  5  1  0
  4 22  1  0
  5  6  1  0
  7  6  1  1
  7  8  1  0
  7 22  1  0
  8  9  1  0
  9 10  1  0
 10 11  1  0
 11 12  2  0
 11 22  1  0
 12 13  1  0
 13 14  2  0
 13 15  1  0
 15 16  1  0
 16 17  1  6
 16 18  1  0
 16 19  1  0
 19 20  1  0
 19 21  2  0
M  END
