
     RDKit          3D

 22 23  0  0  0  0  0  0  0  0999 V2000
   -2.1830   -0.5010   -1.1670 C   0  0  0  0  0  0  0  0  0  0  0  0
   -2.6400   -0.2770    0.2040 C   0  0  0  0  0  0  0  0  0  0  0  0
   -1.6960   -0.3860    1.1260 N   0  0  0  0  0  0  0  0  0  0  0  0
   -0.3860   -0.6900    0.7780 N   0  0  0  0  0  0  0  0  0  0  0  0
    0.4920    0.2710    0.1940 C   0  0  0  0  0  0  0  0  0  0  0  0
    0.0030    1.4300    0.0100 O   0  0  0  0  0  0  0  0  0  0  0  0
    1.8960   -0.0620   -0.1770 C   0  0  0  0  0  0  0  0  0  0  0  0
    2.5010    1.1140   -0.7340 N   0  0  0  0  0  0  0  0  0  0  0  0
    3.7290    1.1250   -1.1190 C   0  0  0  0  0  0  0  0  0  0  0  0
    4.4880   -0.0570   -0.9840 N   0  0  0  0  0  0  0  0  0  0  0  0
    5.6580   -0.1220   -0.4970 C   0  0  0  0  0  0  0  0  0  0  0  0
    6.6440   -1.5890   -0.3110 S   0  0  0  0  0  0  0  0  0  0  0  0
    8.1580   -0.9810    0.4910 C   0  0  0  0  0  0  0  0  0  0  0  0
    8.3160    0.4550    0.1180 C   0  0  0  0  0  0  0  0  0  0  0  0
    6.6470    1.2100    0.1360 S   0  0  0  0  0  0  0  0  0  0  0  0
   -3.9580    0.0320    0.6590 C   0  0  0  0  0  0  0  0  0  0  0  0
   -4.9720    0.1720   -0.1590 C   0  0  0  0  0  0  0  0  0  0  0  0
   -4.9100    0.0380   -1.6320 C   0  0  0  0  0  0  0  0  0  0  0  0
   -6.2580    0.4830    0.4320 N   0  0  0  0  0  0  0  0  0  0  0  0
   -6.4190    0.1860    1.8360 C   0  0  0  0  0  0  0  0  0  0  0  0
   -5.3270    0.7820    2.4820 O   0  0  0  0  0  0  0  0  0  0  0  0
   -4.1470    0.1920    2.1650 C   0  0  0  0  0  0  0  0  0  0  0  0
  1  2  1  0
  2  3  2  3
  2 16  1  0
  3  4  1  0
  4  5  1  0
  5  6  2  0
  5  7  1  0
  7  8  1  0
  8  9  2  3
  9 10  1  0
 10 11  2  3
 11 12  1  0
 11 15  1  0
 12 13  1  0
 13 14  1  0
 14 15  1  0
 16 17  2  0
 16 22  1  0
 17 18  1  0
 17 19  1  0
 19 20  1  0
 20 21  1  0
 21 22  1  0
M  END
