
     RDKit          3D

 24 26  0  0  0  0  0  0  0  0999 V2000
   -4.5690    2.1590   -2.1610 N   0  0  0  0  0  0  0  0  0  0  0  0
   -3.3900    1.7660   -1.7350 C   0  0  0  0  0  0  0  0  0  0  0  0
   -2.2770    1.8580   -2.5590 O   0  0  0  0  0  0  0  0  0  0  0  0
   -1.0640    1.4250   -2.0470 C   0  0  0  0  0  0  0  0  0  0  0  0
   -0.0250    1.4970   -2.7760 O   0  0  0  0  0  0  0  0  0  0  0  0
   -0.9200    0.8880   -0.7020 C   0  0  0  0  0  0  0  0  0  0  0  0
    0.2430    0.3880   -0.2380 C   0  0  0  0  0  0  0  0  0  0  0  0
    1.5690    0.4370   -1.3860 S   0  0  0  0  0  0  0  0  0  0  0  0
    3.1230   -0.1780   -0.9630 C   0  0  2  0  0  0  0  0  0  0  0  0
    3.3370   -1.6390   -0.7540 C   0  0  0  0  0  0  0  0  0  0  0  0
    4.8830   -1.6150   -0.6680 C   0  0  0  0  0  0  0  0  0  0  0  0
    5.1360   -0.3740    0.1990 C   0  0  0  0  0  0  0  0  0  0  0  0
    3.7790    0.3390    0.3060 C   0  0  0  0  0  0  0  0  0  0  0  0
    0.3990   -0.1540    1.1070 C   0  0  0  0  0  0  0  0  0  0  0  0
   -0.8860   -0.5450    1.7890 C   0  0  2  0  0  0  0  0  0  0  0  0
   -0.7550   -1.9500    2.3360 C   0  0  2  0  0  0  0  0  0  0  0  0
    0.2880   -2.0040    3.2530 F   0  0  0  0  0  0  0  0  0  0  0  0
   -0.5660   -2.8560    1.3040 F   0  0  0  0  0  0  0  0  0  0  0  0
   -1.9300   -2.2410    3.0100 F   0  0  0  0  0  0  0  0  0  0  0  0
   -2.0690   -0.5310    0.8510 C   0  0  0  0  0  0  0  0  0  0  0  0
   -2.0660    0.8750    0.2350 C   0  0  2  0  0  0  0  0  0  0  0  0
   -3.3450    1.2420   -0.3700 C   0  0  0  0  0  0  0  0  0  0  0  0
   -4.4850    1.1070    0.3110 C   0  0  0  0  0  0  0  0  0  0  0  0
   -5.7420    1.4500   -0.2310 N   0  0  0  0  0  0  0  0  0  0  0  0
  1  2  2  0
  2  3  1  0
  2 22  1  0
  3  4  1  0
  4  5  2  0
  4  6  1  0
  6  7  2  0
  6 21  1  0
  7  8  1  0
  7 14  1  0
  9  8  1  1
  9 10  1  0
  9 13  1  0
 10 11  1  0
 11 12  1  0
 12 13  1  0
 15 14  1  6
 15 16  1  0
 15 20  1  0
 16 17  1  1
 16 18  1  0
 16 19  1  0
 21 20  1  6
 21 22  1  0
 22 23  2  3
 23 24  1  0
M  END
