
     RDKit          3D

 22 24  0  0  0  0  0  0  0  0999 V2000
    5.4040    1.9610    1.8940 C   0  0  0  0  0  0  0  0  0  0  0  0
    5.5730    0.8320    0.9290 C   0  0  0  0  0  0  0  0  0  0  0  0
    6.7680    0.3980    0.5030 N   0  0  0  0  0  0  0  0  0  0  0  0
    6.6010   -0.6190   -0.3490 C   0  0  0  0  0  0  0  0  0  0  0  0
    5.2260   -0.7940   -0.4300 C   0  0  0  0  0  0  0  0  0  0  0  0
    4.5920    0.0850    0.3450 N   0  0  0  0  0  0  0  0  0  0  0  0
    3.2160    0.2750    0.5740 N   0  0  0  0  0  0  0  0  0  0  0  0
    2.2080   -0.4960   -0.0290 C   0  0  0  0  0  0  0  0  0  0  0  0
    2.5100   -1.4120   -0.8200 O   0  0  0  0  0  0  0  0  0  0  0  0
    0.7810   -0.1620    0.3230 C   0  0  0  0  0  0  0  0  0  0  0  0
   -0.0870   -1.1290   -0.4510 C   0  0  0  0  0  0  0  0  0  0  0  0
   -1.4930   -0.8180   -0.1190 N   0  0  0  0  0  0  0  0  0  0  0  0
   -2.2390    0.1170   -0.8760 C   0  0  0  0  0  0  0  0  0  0  0  0
   -1.7050    1.1200   -1.4760 O   0  0  0  0  0  0  0  0  0  0  0  0
   -3.6720   -0.1330   -0.9350 C   0  0  2  0  0  0  0  0  0  0  0  0
   -4.1490   -0.9770   -2.0430 C   0  0  0  0  0  0  0  0  0  0  0  0
   -4.5200    1.0880   -0.6740 C   0  0  0  0  0  0  0  0  0  0  0  0
   -4.1870    1.5660    0.6410 N   0  0  0  0  0  0  0  0  0  0  0  0
   -4.4310    0.5030    1.5870 C   0  0  0  0  0  0  0  0  0  0  0  0
   -3.8960   -0.9420    0.6910 S   0  0  2  0  0  0  0  0  0  0  0  0
   -2.2370   -1.3790    0.9470 C   0  0  0  0  0  0  0  0  0  0  0  0
   -1.6640   -2.2540    2.1640 S   0  0  0  0  0  0  0  0  0  0  0  0
  1  2  1  0
  2  3  2  0
  2  6  1  0
  3  4  1  0
  4  5  2  0
  5  6  1  0
  6  7  1  0
  7  8  1  0
  8  9  2  0
  8 10  1  0
 10 11  1  0
 11 12  1  0
 12 13  1  0
 12 21  1  0
 13 14  2  0
 13 15  1  0
 15 16  1  6
 15 17  1  0
 15 20  1  0
 17 18  1  0
 18 19  1  0
 20 19  1  1
 20 21  1  0
 21 22  2  0
M  END
