
     RDKit          3D

 27 28  0  0  0  0  0  0  0  0999 V2000
    0.2960   -2.2670    1.3610 O   0  0  0  0  0  0  0  0  0  0  0  0
   -0.6240   -2.4670    0.4990 C   0  0  0  0  0  0  0  0  0  0  0  0
   -0.1960   -3.0330   -0.7950 C   0  0  0  0  0  0  0  0  0  0  0  0
    1.2180   -2.7570   -1.0900 N   0  0  0  0  0  0  0  0  0  0  0  0
    1.5830   -1.5110   -1.6910 C   0  0  0  0  0  0  0  0  0  0  0  0
    2.7350   -1.3430   -2.1620 O   0  0  0  0  0  0  0  0  0  0  0  0
    0.6240   -0.3860   -1.7810 C   0  0  2  0  0  0  0  0  0  0  0  0
    0.2610   -0.1790   -3.1400 O   0  0  0  0  0  0  0  0  0  0  0  0
    1.1370    0.8920   -1.2150 C   0  0  2  0  0  0  0  0  0  0  0  0
    2.4340    0.8720   -0.6630 N   0  0  0  0  0  0  0  0  0  0  0  0
    2.7080    0.1250    0.4990 C   0  0  0  0  0  0  0  0  0  0  0  0
    4.2090    0.3390    0.8060 C   0  0  0  0  0  0  0  0  0  0  0  0
    4.9520   -0.1210   -0.2900 O   0  0  0  0  0  0  0  0  0  0  0  0
    6.2350    0.0480   -0.0560 O   0  0  0  0  0  0  0  0  0  0  0  0
    0.1290    1.3960   -0.2160 C   0  0  0  0  0  0  0  0  0  0  0  0
    0.0890    2.3910    0.6660 N   0  0  0  0  0  0  0  0  0  0  0  0
   -1.0670    2.3530    1.2990 O   0  0  0  0  0  0  0  0  0  0  0  0
   -1.7900    1.3270    0.8320 C   0  0  0  0  0  0  0  0  0  0  0  0
   -1.0320    0.7570   -0.0970 N   0  0  0  0  0  0  0  0  0  0  0  0
   -3.1140    0.8260    1.1630 C   0  0  0  0  0  0  0  0  0  0  0  0
   -3.9230    1.7290    1.8830 O   0  0  0  0  0  0  0  0  0  0  0  0
   -3.8590    3.4470    1.6430 P   0  0  0  0  0  0  0  0  0  0  0  0
   -4.2760    4.2970    3.0720 O   0  0  0  0  0  0  0  0  0  0  0  0
   -4.7450    3.9730    0.2650 O   0  0  0  0  0  0  0  0  0  0  0  0
   -3.6050   -0.3490    0.8640 C   0  0  0  0  0  0  0  0  0  0  0  0
   -2.9270   -1.4330    0.1200 C   0  0  0  0  0  0  0  0  0  0  0  0
   -1.9380   -2.1300    0.8750 N   0  0  0  0  0  0  0  0  0  0  0  0
  1  2  2  0
  2  3  1  0
  2 27  1  0
  3  4  1  0
  4  5  1  0
  5  6  2  0
  5  7  1  0
  7  8  1  6
  7  9  1  0
  9 10  1  1
  9 15  1  0
 10 11  1  0
 11 12  1  0
 12 13  1  0
 13 14  1  0
 15 16  2  0
 15 19  1  0
 16 17  1  0
 17 18  1  0
 18 19  2  0
 18 20  1  0
 20 21  1  0
 20 25  2  0
 21 22  1  0
 22 23  1  0
 22 24  1  0
 25 26  1  0
 26 27  1  0
M  END
