
     RDKit          3D

 27 28  0  0  0  0  0  0  0  0999 V2000
    7.2860   -1.4130    1.2270 N   0  0  0  0  0  0  0  0  0  0  0  0
    6.3190   -0.4920    0.7730 C   0  0  0  0  0  0  0  0  0  0  0  0
    6.6960    0.6400    0.3650 O   0  0  0  0  0  0  0  0  0  0  0  0
    4.9180   -0.7590    0.7450 N   0  0  0  0  0  0  0  0  0  0  0  0
    3.9650    0.1790    0.2850 C   0  0  0  0  0  0  0  0  0  0  0  0
    4.4110    1.3050   -0.1140 O   0  0  0  0  0  0  0  0  0  0  0  0
    2.5110   -0.1410    0.2720 C   0  0  0  0  0  0  0  0  0  0  0  0
    1.7830    1.0600   -0.2690 C   0  0  0  0  0  0  0  0  0  0  0  0
    0.2990    0.8820   -0.3400 C   0  0  2  0  0  0  0  0  0  0  0  0
   -0.3470    0.6090    0.9790 C   0  0  0  0  0  0  0  0  0  0  0  0
   -1.6620    0.0920    0.5540 N   0  0  0  0  0  0  0  0  0  0  0  0
   -2.8420    0.1490    1.3410 C   0  0  0  0  0  0  0  0  0  0  0  0
   -2.8310    0.6600    2.4790 O   0  0  0  0  0  0  0  0  0  0  0  0
   -4.0930   -0.4090    0.7890 C   0  0  0  0  0  0  0  0  0  0  0  0
   -5.1630   -0.2970    1.6380 O   0  0  0  0  0  0  0  0  0  0  0  0
   -6.5490   -0.9910    0.8550 P   0  0  0  0  0  0  0  0  0  0  0  0
   -7.8730   -0.9080    1.9750 O   0  0  0  0  0  0  0  0  0  0  0  0
   -6.2980   -2.6490    0.4400 O   0  0  0  0  0  0  0  0  0  0  0  0
   -1.5350   -0.4590   -0.7500 C   0  0  0  0  0  0  0  0  0  0  0  0
   -2.4790   -0.9520   -1.4110 O   0  0  0  0  0  0  0  0  0  0  0  0
   -0.1110   -0.3300   -1.1450 C   0  0  1  0  0  0  0  0  0  0  0  0
    0.0250   -0.1580   -2.5490 N   0  0  0  0  0  0  0  0  0  0  0  0
   -0.4060    1.0380   -3.1690 C   0  0  0  0  0  0  0  0  0  0  0  0
   -0.6390    1.1110   -4.4030 O   0  0  0  0  0  0  0  0  0  0  0  0
   -0.5710    2.1890   -2.3220 N   0  0  0  0  0  0  0  0  0  0  0  0
   -0.3010    2.0830   -0.9320 C   0  0  0  0  0  0  0  0  0  0  0  0
   -0.5900    3.0570   -0.1890 O   0  0  0  0  0  0  0  0  0  0  0  0
  1  2  1  0
  2  3  2  0
  2  4  1  0
  4  5  1  0
  5  6  2  0
  5  7  1  0
  7  8  1  0
  9  8  1  1
  9 10  1  0
  9 21  1  0
  9 26  1  0
 10 11  1  0
 11 12  1  0
 11 19  1  0
 12 13  2  0
 12 14  1  0
 14 15  1  0
 15 16  1  0
 16 17  1  0
 16 18  1  0
 19 20  2  0
 19 21  1  0
 21 22  1  6
 22 23  1  0
 23 24  2  0
 23 25  1  0
 25 26  1  0
 26 27  2  0
M  END
