
     RDKit          3D

 27 28  0  0  0  0  0  0  0  0999 V2000
    0.0110    6.9760   -0.9310 N   0  0  0  0  0  0  0  0  0  0  0  0
    0.7560    5.7860   -0.7940 C   0  0  0  0  0  0  0  0  0  0  0  0
    1.8130    5.6660   -1.4810 O   0  0  0  0  0  0  0  0  0  0  0  0
    0.4170    4.7430    0.0330 O   0  0  0  0  0  0  0  0  0  0  0  0
    1.1890    3.6130    0.1170 N   0  0  0  0  0  0  0  0  0  0  0  0
    0.7230    2.4230    0.0490 C   0  0  0  0  0  0  0  0  0  0  0  0
    1.6840    1.3190    0.1560 C   0  0  0  0  0  0  0  0  0  0  0  0
    1.3170    0.0570    0.1000 C   0  0  0  0  0  0  0  0  0  0  0  0
    2.2640   -1.0150    0.2060 N   0  0  0  0  0  0  0  0  0  0  0  0
    3.3270   -0.9730    1.1880 C   0  0  0  0  0  0  0  0  0  0  0  0
    4.1470   -2.2400    1.0450 C   0  0  0  0  0  0  0  0  0  0  0  0
    4.8650   -2.3350   -0.6660 P   0  0  0  0  0  0  0  0  0  0  0  0
    3.7190   -2.9970   -1.7900 O   0  0  0  0  0  0  0  0  0  0  0  0
    6.3240   -3.2750   -0.6820 O   0  0  0  0  0  0  0  0  0  0  0  0
   -0.0850   -0.3210   -0.0750 C   0  0  0  0  0  0  0  0  0  0  0  0
   -1.0370    0.7860   -0.1820 C   0  0  0  0  0  0  0  0  0  0  0  0
   -2.2870    0.4770   -0.3380 N   0  0  0  0  0  0  0  0  0  0  0  0
   -2.7370   -0.8810   -0.4050 C   0  0  0  0  0  0  0  0  0  0  0  0
   -2.3640   -1.8220   -1.1680 N   0  0  0  0  0  0  0  0  0  0  0  0
   -3.0620   -3.0000   -0.9040 O   0  0  0  0  0  0  0  0  0  0  0  0
   -3.4860   -2.8920    0.4690 C   0  0  0  0  0  0  0  0  0  0  0  0
   -3.7960   -1.4100    0.4850 C   0  0  2  0  0  0  0  0  0  0  0  0
   -5.0860   -1.2670   -0.0910 O   0  0  0  0  0  0  0  0  0  0  0  0
   -6.1040   -0.6570    0.5940 C   0  0  0  0  0  0  0  0  0  0  0  0
   -5.8580   -0.2280    1.7520 O   0  0  0  0  0  0  0  0  0  0  0  0
   -7.3860   -0.4970    0.0650 O   0  0  0  0  0  0  0  0  0  0  0  0
   -0.6010    2.0920   -0.1160 O   0  0  0  0  0  0  0  0  0  0  0  0
  1  2  1  0
  2  3  2  0
  2  4  1  0
  4  5  1  0
  5  6  2  3
  6  7  1  0
  6 27  1  0
  7  8  2  0
  8  9  1  0
  8 15  1  0
  9 10  1  0
 10 11  1  0
 11 12  1  0
 12 13  1  0
 12 14  1  0
 15 16  1  0
 16 17  2  3
 16 27  1  0
 17 18  1  0
 18 19  2  0
 18 22  1  0
 19 20  1  0
 20 21  1  0
 21 22  1  0
 22 23  1  6
 23 24  1  0
 24 25  2  0
 24 26  1  0
M  END
