
     RDKit          3D

 27 28  0  0  0  0  0  0  0  0999 V2000
   -1.8740    4.4220   -1.2690 O   0  0  0  0  0  0  0  0  0  0  0  0
   -1.6320    3.4530   -0.4300 C   0  0  0  0  0  0  0  0  0  0  0  0
   -2.3610    2.2870   -0.7710 N   0  0  0  0  0  0  0  0  0  0  0  0
   -2.8690    1.2820    0.1260 C   0  0  0  0  0  0  0  0  0  0  0  0
   -2.7180   -0.0630   -0.5360 C   0  0  0  0  0  0  0  0  0  0  0  0
   -2.3080   -1.1080    0.3650 N   0  0  0  0  0  0  0  0  0  0  0  0
   -3.2780   -2.6220    0.1100 P   0  0  0  0  0  0  0  0  0  0  0  0
   -4.7710   -2.5380    0.9810 O   0  0  0  0  0  0  0  0  0  0  0  0
   -3.5110   -2.8820   -1.5830 O   0  0  0  0  0  0  0  0  0  0  0  0
   -0.9330   -1.4380    0.0560 C   0  0  0  0  0  0  0  0  0  0  0  0
    0.0440   -0.6250    0.8710 C   0  0  0  0  0  0  0  0  0  0  0  0
    1.2770   -0.2420    0.0820 C   0  0  1  0  0  0  0  0  0  0  0  0
    1.6380   -1.2480   -0.9300 C   0  0  0  0  0  0  0  0  0  0  0  0
    1.7900   -0.9070   -2.1190 O   0  0  0  0  0  0  0  0  0  0  0  0
    1.8120   -2.6030   -0.5620 N   0  0  0  0  0  0  0  0  0  0  0  0
    2.1500   -3.5550   -1.4930 O   0  0  0  0  0  0  0  0  0  0  0  0
    3.1910   -4.1980   -1.0250 O   0  0  0  0  0  0  0  0  0  0  0  0
    4.1200   -3.4200   -0.5410 O   0  0  0  0  0  0  0  0  0  0  0  0
    1.0590    1.1220   -0.6060 C   0  0  0  0  0  0  0  0  0  0  0  0
    1.3380    2.1720    0.3580 N   0  0  0  0  0  0  0  0  0  0  0  0
    2.8100    2.2960    0.5480 C   0  0  0  0  0  0  0  0  0  0  0  0
    3.4100    0.9420    0.7970 C   0  0  0  0  0  0  0  0  0  0  0  0
    2.3810   -0.0820    1.0810 C   0  0  0  0  0  0  0  0  0  0  0  0
    2.3830   -0.7970    2.0780 O   0  0  0  0  0  0  0  0  0  0  0  0
    0.4120    2.9670    1.0610 C   0  0  0  0  0  0  0  0  0  0  0  0
    0.7430    3.0480    2.3220 O   0  0  0  0  0  0  0  0  0  0  0  0
   -0.7420    3.6470    0.6480 N   0  0  0  0  0  0  0  0  0  0  0  0
  1  2  2  0
  2  3  1  0
  2 27  1  0
  3  4  1  0
  4  5  1  0
  5  6  1  0
  6  7  1  0
  6 10  1  0
  7  8  1  0
  7  9  1  0
 10 11  1  0
 11 12  1  0
 12 13  1  6
 12 19  1  0
 12 23  1  0
 13 14  2  0
 13 15  1  0
 15 16  1  0
 16 17  1  0
 17 18  1  0
 19 20  1  0
 20 21  1  0
 20 25  1  0
 21 22  1  0
 22 23  1  0
 23 24  2  0
 25 26  2  0
 25 27  1  0
M  END
