
     RDKit          3D

 27 28  0  0  0  0  0  0  0  0999 V2000
    4.4560   -0.3830   -0.1680 N   0  0  0  0  0  0  0  0  0  0  0  0
    3.4060    0.2080    0.3010 C   0  0  0  0  0  0  0  0  0  0  0  0
    3.6170    1.4740    0.9130 N   0  0  0  0  0  0  0  0  0  0  0  0
    5.1480    2.3740    0.6590 P   0  0  0  0  0  0  0  0  0  0  0  0
    6.5010    1.5780    1.3710 O   0  0  0  0  0  0  0  0  0  0  0  0
    4.9970    3.9690    1.3400 O   0  0  0  0  0  0  0  0  0  0  0  0
    2.1190   -0.3870    0.2010 N   0  0  0  0  0  0  0  0  0  0  0  0
    1.0150    0.2630   -0.5220 C   0  0  0  0  0  0  0  0  0  0  0  0
    0.2910   -0.7400   -1.3430 C   0  0  0  0  0  0  0  0  0  0  0  0
   -0.0030   -0.5040   -2.5480 O   0  0  0  0  0  0  0  0  0  0  0  0
   -0.0670   -1.9720   -0.7550 N   0  0  0  0  0  0  0  0  0  0  0  0
   -1.2850   -2.6790   -1.0480 C   0  0  0  0  0  0  0  0  0  0  0  0
   -2.3970   -2.4490   -0.1360 C   0  0  0  0  0  0  0  0  0  0  0  0
   -3.0770   -1.1990    0.0380 C   0  0  0  0  0  0  0  0  0  0  0  0
   -3.0140   -0.0950   -0.6510 C   0  0  0  0  0  0  0  0  0  0  0  0
   -3.7700    1.1580   -0.3780 C   0  0  2  0  0  0  0  0  0  0  0  0
   -4.5970    1.4750   -1.4820 O   0  0  0  0  0  0  0  0  0  0  0  0
   -2.9230    2.2870   -0.2120 O   0  0  0  0  0  0  0  0  0  0  0  0
   -2.0060    2.2640    0.8200 C   0  0  0  0  0  0  0  0  0  0  0  0
   -1.9770    1.2470    1.5520 O   0  0  0  0  0  0  0  0  0  0  0  0
   -1.1210    3.3080    1.0810 O   0  0  0  0  0  0  0  0  0  0  0  0
   -4.6340    1.0010    0.7210 O   0  0  0  0  0  0  0  0  0  0  0  0
   -4.7110   -0.1450    1.4560 C   0  0  0  0  0  0  0  0  0  0  0  0
   -4.0130   -1.1630    1.1670 N   0  0  0  0  0  0  0  0  0  0  0  0
    0.8740   -2.5040    0.1910 C   0  0  0  0  0  0  0  0  0  0  0  0
    0.8230   -3.7180    0.4810 O   0  0  0  0  0  0  0  0  0  0  0  0
    1.8930   -1.6550    0.8230 C   0  0  0  0  0  0  0  0  0  0  0  0
  1  2  2  0
  2  3  1  0
  2  7  1  0
  3  4  1  0
  4  5  1  0
  4  6  1  0
  7  8  1  0
  7 27  1  0
  8  9  1  0
  9 10  2  0
  9 11  1  0
 11 12  1  0
 11 25  1  0
 12 13  1  0
 13 14  1  0
 14 15  2  0
 14 24  1  0
 15 16  1  0
 16 17  1  6
 16 18  1  0
 16 22  1  0
 18 19  1  0
 19 20  2  0
 19 21  1  0
 22 23  1  0
 23 24  2  0
 25 26  2  0
 25 27  1  0
M  END
