
     RDKit          3D

 40 44  0  0  0  0  0  0  0  0999 V2000
   -3.8840   -0.3230   -1.1970 C   0  0  0  0  0  0  0  0  0  0  0  0
   -3.6080   -0.1030    0.2440 C   0  0  0  0  0  0  0  0  0  0  0  0
   -2.8080   -0.8160    1.0020 C   0  0  0  0  0  0  0  0  0  0  0  0
   -1.9970   -1.9780    0.6630 C   0  0  1  0  0  0  0  0  0  0  0  0
   -2.4250   -2.8310   -0.4290 C   0  0  0  0  0  0  0  0  0  0  0  0
   -1.9460   -2.7670   -1.7410 C   0  0  0  0  0  0  0  0  0  0  0  0
   -2.3740   -3.5880   -2.7420 C   0  0  0  0  0  0  0  0  0  0  0  0
   -3.3330   -4.5470   -2.4780 C   0  0  0  0  0  0  0  0  0  0  0  0
   -3.7980   -5.3890   -3.4260 F   0  0  0  0  0  0  0  0  0  0  0  0
   -3.8410   -4.6540   -1.2010 C   0  0  0  0  0  0  0  0  0  0  0  0
   -4.7970   -5.5960   -0.9010 F   0  0  0  0  0  0  0  0  0  0  0  0
   -3.3870   -3.8080   -0.2090 C   0  0  0  0  0  0  0  0  0  0  0  0
   -0.5690   -1.5660    0.6050 C   0  0  0  0  0  0  0  0  0  0  0  0
   -0.3250   -0.2950    0.1280 C   0  0  0  0  0  0  0  0  0  0  0  0
    0.9550    0.2210    0.0250 C   0  0  0  0  0  0  0  0  0  0  0  0
    1.2110    1.4880   -0.4530 C   0  0  0  0  0  0  0  0  0  0  0  0
    2.5080    1.9420   -0.5340 C   0  0  0  0  0  0  0  0  0  0  0  0
    3.6070    1.1650   -0.1470 C   0  0  0  0  0  0  0  0  0  0  0  0
    4.9270    1.6850   -0.2460 N   0  0  0  0  0  0  0  0  0  0  0  0
    5.0170    3.1190   -0.4380 C   0  0  0  0  0  0  0  0  0  0  0  0
    6.3460    3.6170    0.1140 C   0  0  0  0  0  0  0  0  0  0  0  0
    7.4500    3.3490   -0.8990 C   0  0  0  0  0  0  0  0  0  0  0  0
    7.9370    2.0470   -0.6580 O   0  0  0  0  0  0  0  0  0  0  0  0
    7.0660    1.1350   -1.2470 C   0  0  0  0  0  0  0  0  0  0  0  0
    6.0360    0.7630   -0.1630 C   0  0  0  0  0  0  0  0  0  0  0  0
    3.3070   -0.0930    0.3240 C   0  0  0  0  0  0  0  0  0  0  0  0
    1.9980   -0.5840    0.4190 C   0  0  0  0  0  0  0  0  0  0  0  0
    1.7570   -1.8260    0.8850 N   0  0  0  0  0  0  0  0  0  0  0  0
    0.4910   -2.3410    0.9890 C   0  0  0  0  0  0  0  0  0  0  0  0
    0.3300   -3.6670    1.5400 C   0  0  0  0  0  0  0  0  0  0  0  0
   -0.1800   -4.7700    0.9320 C   0  0  0  0  0  0  0  0  0  0  0  0
   -0.0970   -5.8020    1.8380 C   0  0  0  0  0  0  0  0  0  0  0  0
    0.4360   -5.3320    2.9220 O   0  0  0  0  0  0  0  0  0  0  0  0
    0.7150   -4.0470    2.8020 C   0  0  0  0  0  0  0  0  0  0  0  0
    1.2790   -3.3320    3.8040 F   0  0  0  0  0  0  0  0  0  0  0  0
   -4.3410    1.0740    0.8560 C   0  0  0  0  0  0  0  0  0  0  0  0
   -3.8720    2.2860    0.0730 C   0  0  0  0  0  0  0  0  0  0  0  0
   -4.4520    3.5150    0.4890 N   0  0  0  0  0  0  0  0  0  0  0  0
   -4.0870    3.9960    1.7770 C   0  0  0  0  0  0  0  0  0  0  0  0
   -5.7880    3.7660    0.0670 C   0  0  0  0  0  0  0  0  0  0  0  0
  1  2  1  0
  2  3  2  3
  2 36  1  0
  4  3  1  6
  4  5  1  0
  4 13  1  0
  5  6  2  0
  5 12  1  0
  6  7  1  0
  7  8  2  0
  8  9  1  0
  8 10  1  0
 10 11  1  0
 10 12  2  0
 13 14  2  0
 13 29  1  0
 14 15  1  0
 15 16  2  0
 15 27  1  0
 16 17  1  0
 17 18  2  0
 18 19  1  0
 18 26  1  0
 19 20  1  0
 19 25  1  0
 20 21  1  0
 21 22  1  0
 22 23  1  0
 23 24  1  0
 24 25  1  0
 26 27  2  0
 27 28  1  0
 28 29  2  0
 29 30  1  0
 30 31  1  0
 30 34  2  0
 31 32  2  0
 32 33  1  0
 33 34  1  0
 34 35  1  0
 36 37  1  0
 37 38  1  0
 38 39  1  0
 38 40  1  0
M  END
