
     RDKit          3D

 40 44  0  0  0  0  0  0  0  0999 V2000
   -7.6330    2.0730    2.2410 C   0  0  0  0  0  0  0  0  0  0  0  0
   -6.5540    1.5490    1.7180 C   0  0  0  0  0  0  0  0  0  0  0  0
   -5.3570    2.3250    1.3150 C   0  0  0  0  0  0  0  0  0  0  0  0
   -4.6350    1.3730    0.3610 C   0  0  0  0  0  0  0  0  0  0  0  0
   -4.9530    0.0460    0.9330 N   0  0  0  0  0  0  0  0  0  0  0  0
   -3.9980   -1.0170    0.9960 C   0  0  0  0  0  0  0  0  0  0  0  0
   -3.5300   -1.5910   -0.3020 C   0  0  0  0  0  0  0  0  0  0  0  0
   -2.7820   -0.6810   -1.2250 C   0  0  2  0  0  0  0  0  0  0  0  0
   -2.4630   -1.5250   -2.4610 C   0  0  0  0  0  0  0  0  0  0  0  0
   -1.3600   -2.4750   -2.1820 C   0  0  0  0  0  0  0  0  0  0  0  0
   -1.3590   -3.7700   -2.6420 C   0  0  0  0  0  0  0  0  0  0  0  0
   -0.2930   -4.5870   -2.3460 C   0  0  0  0  0  0  0  0  0  0  0  0
    0.7760   -4.1000   -1.5840 C   0  0  0  0  0  0  0  0  0  0  0  0
    0.7880   -2.8060   -1.1170 C   0  0  0  0  0  0  0  0  0  0  0  0
   -0.3060   -1.9970   -1.4310 C   0  0  0  0  0  0  0  0  0  0  0  0
   -0.3100   -0.6620   -0.9610 N   0  0  0  0  0  0  0  0  0  0  0  0
    0.9370    0.0440   -0.7730 C   0  0  0  0  0  0  0  0  0  0  0  0
    1.3600    0.8930   -1.7710 C   0  0  0  0  0  0  0  0  0  0  0  0
    2.5400    1.6310   -1.6910 C   0  0  0  0  0  0  0  0  0  0  0  0
    3.3410    1.5260   -0.5750 C   0  0  0  0  0  0  0  0  0  0  0  0
    4.5180    2.1880   -0.3610 O   0  0  0  0  0  0  0  0  0  0  0  0
    5.1630    3.0620   -1.1850 C   0  0  0  0  0  0  0  0  0  0  0  0
    5.6660    2.5670   -2.4970 C   0  0  0  0  0  0  0  0  0  0  0  0
    6.6760    1.4230   -2.3030 C   0  0  0  0  0  0  0  0  0  0  0  0
    2.8860    0.6490    0.4350 C   0  0  0  0  0  0  0  0  0  0  0  0
    3.7140    0.5340    1.6030 N   0  0  0  0  0  0  0  0  0  0  0  0
    4.6230   -0.5920    1.8080 C   0  0  0  0  0  0  0  0  0  0  0  0
    5.9480   -0.0920    2.3870 C   0  0  0  0  0  0  0  0  0  0  0  0
    5.6860    0.5400    3.7400 C   0  0  0  0  0  0  0  0  0  0  0  0
    4.8420    1.7570    3.5360 C   0  0  0  0  0  0  0  0  0  0  0  0
    3.6850    1.5230    2.6200 C   0  0  0  0  0  0  0  0  0  0  0  0
    2.6650    2.2320    2.7700 O   0  0  0  0  0  0  0  0  0  0  0  0
    1.7170   -0.0640    0.3260 C   0  0  0  0  0  0  0  0  0  0  0  0
   -1.5720   -0.0300   -0.6700 C   0  0  0  0  0  0  0  0  0  0  0  0
   -6.2900    0.1000    1.4170 C   0  0  0  0  0  0  0  0  0  0  0  0
   -7.1980   -0.8060    1.6280 C   0  0  0  0  0  0  0  0  0  0  0  0
   -7.1620   -2.2520    1.4110 C   0  0  1  0  0  0  0  0  0  0  0  0
   -6.6150   -2.8950    2.5340 F   0  0  0  0  0  0  0  0  0  0  0  0
   -8.5030   -2.7630    1.4160 F   0  0  0  0  0  0  0  0  0  0  0  0
   -6.6080   -2.6470    0.2420 F   0  0  0  0  0  0  0  0  0  0  0  0
  1  2  2  0
  2  3  1  0
  2 35  1  0
  3  4  1  0
  4  5  1  0
  5  6  1  0
  5 35  1  0
  6  7  1  0
  8  7  1  1
  8  9  1  0
  8 34  1  0
  9 10  1  0
 10 11  2  0
 10 15  1  0
 11 12  1  0
 12 13  2  0
 13 14  1  0
 14 15  2  0
 15 16  1  0
 16 17  1  0
 16 34  1  0
 17 18  2  0
 17 33  1  0
 18 19  1  0
 19 20  2  0
 20 21  1  0
 20 25  1  0
 21 22  1  0
 22 23  1  0
 23 24  1  0
 25 26  1  0
 25 33  2  0
 26 27  1  0
 26 31  1  0
 27 28  1  0
 28 29  1  0
 29 30  1  0
 30 31  1  0
 31 32  2  0
 35 36  2  3
 36 37  1  0
 37 38  1  1
 37 39  1  0
 37 40  1  0
M  END
