
     RDKit          3D

 40 44  0  0  0  0  0  0  0  0999 V2000
   -0.2290   -1.1490   -1.2520 C   0  0  0  0  0  0  0  0  0  0  0  0
   -1.3260   -0.9180   -0.1960 C   0  0  2  0  0  0  0  0  0  0  0  0
   -2.5750   -1.3140   -0.8950 C   0  0  0  0  0  0  0  0  0  0  0  0
   -3.0540   -0.4280   -1.6930 O   0  0  0  0  0  0  0  0  0  0  0  0
   -3.2750   -2.5110   -0.7870 N   0  0  0  0  0  0  0  0  0  0  0  0
   -4.5610   -2.7840   -1.4640 C   0  0  0  0  0  0  0  0  0  0  0  0
   -5.2910   -3.6730   -0.4630 C   0  0  0  0  0  0  0  0  0  0  0  0
   -4.1710   -4.3960    0.1670 C   0  0  0  0  0  0  0  0  0  0  0  0
   -4.1270   -5.5780    0.8690 C   0  0  0  0  0  0  0  0  0  0  0  0
   -2.9410   -6.0780    1.3700 C   0  0  0  0  0  0  0  0  0  0  0  0
   -1.7670   -5.3890    1.1710 C   0  0  0  0  0  0  0  0  0  0  0  0
   -1.8440   -4.1970    0.4580 C   0  0  0  0  0  0  0  0  0  0  0  0
   -2.9990   -3.6800   -0.0470 C   0  0  0  0  0  0  0  0  0  0  0  0
   -1.2740    0.5480    0.0310 N   0  0  0  0  0  0  0  0  0  0  0  0
   -2.5160    1.0050    0.6050 C   0  0  0  0  0  0  0  0  0  0  0  0
   -2.7570    2.4290    0.4870 C   0  0  0  0  0  0  0  0  0  0  0  0
   -2.2080    3.4310   -0.1110 C   0  0  0  0  0  0  0  0  0  0  0  0
   -2.8500    4.7970    0.0880 C   0  0  0  0  0  0  0  0  0  0  0  0
   -2.4380    5.9270   -0.4260 C   0  0  0  0  0  0  0  0  0  0  0  0
   -3.3300    7.0400    0.0010 C   0  0  0  0  0  0  0  0  0  0  0  0
   -4.3070    6.3680    0.8380 C   0  0  0  0  0  0  0  0  0  0  0  0
   -4.0260    5.0490    0.8900 C   0  0  0  0  0  0  0  0  0  0  0  0
   -1.0730    3.4980   -1.0460 C   0  0  1  0  0  0  0  0  0  0  0  0
   -1.5560    4.1730   -2.2190 F   0  0  0  0  0  0  0  0  0  0  0  0
   -0.0780    4.3550   -0.5950 F   0  0  0  0  0  0  0  0  0  0  0  0
   -0.5950    2.3080   -1.4360 F   0  0  0  0  0  0  0  0  0  0  0  0
   -0.3070    0.7510    1.1700 C   0  0  0  0  0  0  0  0  0  0  0  0
    1.0780    0.4190    0.8640 C   0  0  0  0  0  0  0  0  0  0  0  0
    1.9410    1.3950    0.3240 C   0  0  0  0  0  0  0  0  0  0  0  0
    3.2570    1.1480    0.0440 C   0  0  0  0  0  0  0  0  0  0  0  0
    3.8390   -0.1050    0.2770 C   0  0  0  0  0  0  0  0  0  0  0  0
    5.1980   -0.3390   -0.0230 N   0  0  0  0  0  0  0  0  0  0  0  0
    6.0860   -0.8600    0.9790 C   0  0  0  0  0  0  0  0  0  0  0  0
    7.2830   -1.5000    0.3470 C   0  0  0  0  0  0  0  0  0  0  0  0
    8.0030   -0.4880   -0.4940 C   0  0  0  0  0  0  0  0  0  0  0  0
    7.1510    0.0820   -1.6000 C   0  0  0  0  0  0  0  0  0  0  0  0
    5.7040   -0.0650   -1.3150 C   0  0  0  0  0  0  0  0  0  0  0  0
    4.9010    0.0600   -2.2650 O   0  0  0  0  0  0  0  0  0  0  0  0
    2.9870   -1.0660    0.8100 C   0  0  0  0  0  0  0  0  0  0  0  0
    1.6660   -0.8100    1.0900 C   0  0  0  0  0  0  0  0  0  0  0  0
  2  1  1  6
  2  3  1  0
  2 14  1  0
  3  4  2  0
  3  5  1  0
  5  6  1  0
  5 13  1  0
  6  7  1  0
  7  8  1  0
  8  9  2  0
  8 13  1  0
  9 10  1  0
 10 11  2  0
 11 12  1  0
 12 13  2  0
 14 15  1  0
 14 27  1  0
 15 16  1  0
 16 17  2  3
 17 18  1  0
 17 23  1  0
 18 19  2  0
 18 22  1  0
 19 20  1  0
 20 21  1  0
 21 22  2  0
 23 24  1  6
 23 25  1  0
 23 26  1  0
 27 28  1  0
 28 29  2  0
 28 40  1  0
 29 30  1  0
 30 31  2  0
 31 32  1  0
 31 39  1  0
 32 33  1  0
 32 37  1  0
 33 34  1  0
 34 35  1  0
 35 36  1  0
 36 37  1  0
 37 38  2  0
 39 40  2  0
M  END
