
     RDKit          3D

 40 44  0  0  0  0  0  0  0  0999 V2000
   -6.2790    2.7000   -4.3810 C   0  0  0  0  0  0  0  0  0  0  0  0
   -5.6830    2.0260   -3.3980 C   0  0  0  0  0  0  0  0  0  0  0  0
   -4.3490    1.4690   -3.5320 C   0  0  0  0  0  0  0  0  0  0  0  0
   -3.6890    0.7940   -2.6510 C   0  0  0  0  0  0  0  0  0  0  0  0
   -2.4020    0.4040   -3.0740 F   0  0  0  0  0  0  0  0  0  0  0  0
   -4.1650    0.2900   -1.4020 C   0  0  0  0  0  0  0  0  0  0  0  0
   -3.3640    0.5420   -0.2770 C   0  0  0  0  0  0  0  0  0  0  0  0
   -2.1240    1.3300   -0.4500 C   0  0  1  0  0  0  0  0  0  0  0  0
   -1.4730    1.7330    0.8520 C   0  0  0  0  0  0  0  0  0  0  0  0
   -0.7290    0.4940    0.8840 N   0  0  0  0  0  0  0  0  0  0  0  0
    0.6450    0.6220    1.2980 C   0  0  1  0  0  0  0  0  0  0  0  0
    0.8200    1.1370    2.6890 C   0  0  0  0  0  0  0  0  0  0  0  0
    2.0680    0.6960    3.3110 C   0  0  0  0  0  0  0  0  0  0  0  0
    3.1030    0.1020    2.4780 N   0  0  0  0  0  0  0  0  0  0  0  0
    4.4400    0.1660    2.9640 C   0  0  0  0  0  0  0  0  0  0  0  0
    4.5510    0.7250    4.1530 O   0  0  0  0  0  0  0  0  0  0  0  0
    5.6620   -0.2840    2.3600 C   0  0  0  0  0  0  0  0  0  0  0  0
    6.7810   -0.3100    3.2210 C   0  0  0  0  0  0  0  0  0  0  0  0
    7.9960   -0.6870    2.7320 C   0  0  0  0  0  0  0  0  0  0  0  0
    8.1760   -1.0380    1.4400 C   0  0  0  0  0  0  0  0  0  0  0  0
    9.3710   -1.4220    0.9390 F   0  0  0  0  0  0  0  0  0  0  0  0
    7.0970   -1.0250    0.5480 C   0  0  0  0  0  0  0  0  0  0  0  0
    7.2940   -1.3830   -0.7510 O   0  0  0  0  0  0  0  0  0  0  0  0
    6.4800   -1.4550   -1.8440 C   0  0  0  0  0  0  0  0  0  0  0  0
    5.8800   -0.1900   -2.3200 C   0  0  0  0  0  0  0  0  0  0  0  0
    6.1510    0.2300   -3.5670 C   0  0  0  0  0  0  0  0  0  0  0  0
    5.8610   -0.6400    1.0580 C   0  0  0  0  0  0  0  0  0  0  0  0
    2.7640   -0.5580    1.2740 C   0  0  0  0  0  0  0  0  0  0  0  0
    1.2250   -0.7920    1.2850 C   0  0  0  0  0  0  0  0  0  0  0  0
   -0.8830    0.4700   -0.5720 C   0  0  0  0  0  0  0  0  0  0  0  0
   -3.6880    0.0810    0.9290 N   0  0  0  0  0  0  0  0  0  0  0  0
   -4.7900   -0.6480    1.1540 C   0  0  0  0  0  0  0  0  0  0  0  0
   -5.1420   -1.1450    2.5080 C   0  0  0  0  0  0  0  0  0  0  0  0
   -5.6060   -0.9220    0.0740 C   0  0  0  0  0  0  0  0  0  0  0  0
   -6.7110   -1.7200    0.2920 C   0  0  0  0  0  0  0  0  0  0  0  0
   -7.4960   -2.0500   -0.7870 C   0  0  0  0  0  0  0  0  0  0  0  0
   -8.5930   -2.8260   -0.6060 F   0  0  0  0  0  0  0  0  0  0  0  0
   -7.1990   -1.6050   -2.0660 C   0  0  0  0  0  0  0  0  0  0  0  0
   -6.1010   -0.8110   -2.2770 C   0  0  0  0  0  0  0  0  0  0  0  0
   -5.3040   -0.4620   -1.2120 C   0  0  0  0  0  0  0  0  0  0  0  0
  1  2  2  0
  2  3  1  0
  3  4  2  3
  4  5  1  0
  4  6  1  0
  6  7  2  0
  6 40  1  0
  8  7  1  1
  7 31  1  0
  8  9  1  0
  8 30  1  0
  9 10  1  0
 11 10  1  1
 10 30  1  0
 11 12  1  0
 11 29  1  0
 12 13  1  0
 13 14  1  0
 14 15  1  0
 14 28  1  0
 15 16  2  0
 15 17  1  0
 17 18  2  0
 17 27  1  0
 18 19  1  0
 19 20  2  0
 20 21  1  0
 20 22  1  0
 22 23  1  0
 22 27  2  0
 23 24  1  0
 24 25  1  0
 25 26  2  0
 28 29  1  0
 31 32  2  0
 32 33  1  0
 32 34  1  0
 34 35  2  0
 34 40  1  0
 35 36  1  0
 36 37  1  0
 36 38  2  0
 38 39  1  0
 39 40  2  0
M  END
