
     RDKit          3D

 40 44  0  0  0  0  0  0  0  0999 V2000
   -1.5810    4.9220    0.2530 C   0  0  0  0  0  0  0  0  0  0  0  0
   -1.5980    3.4550    0.4570 C   0  0  0  0  0  0  0  0  0  0  0  0
   -0.3570    2.7860    0.4490 C   0  0  0  0  0  0  0  0  0  0  0  0
   -0.3170    1.4170    0.5660 C   0  0  0  0  0  0  0  0  0  0  0  0
    0.9720    0.7340    0.5470 N   0  0  0  0  0  0  0  0  0  0  0  0
    1.4610    0.1460    1.7480 C   0  0  0  0  0  0  0  0  0  0  0  0
    2.3780    1.0850    2.5540 C   0  0  1  0  0  0  0  0  0  0  0  0
    1.6870    2.2290    2.9110 F   0  0  0  0  0  0  0  0  0  0  0  0
    2.7120    0.4380    3.7330 F   0  0  0  0  0  0  0  0  0  0  0  0
    1.6050    0.7280   -0.6920 C   0  0  0  0  0  0  0  0  0  0  0  0
    0.9640    1.3770   -1.6610 O   0  0  0  0  0  0  0  0  0  0  0  0
    2.8350    0.1570   -1.1690 C   0  0  0  0  0  0  0  0  0  0  0  0
    3.1810    0.2550   -2.5410 C   0  0  0  0  0  0  0  0  0  0  0  0
    4.3430   -0.2470   -3.0590 C   0  0  0  0  0  0  0  0  0  0  0  0
    5.2350   -0.8820   -2.2250 C   0  0  0  0  0  0  0  0  0  0  0  0
    4.9650   -1.0140   -0.8760 C   0  0  0  0  0  0  0  0  0  0  0  0
    5.9030   -1.6870    0.0250 C   0  0  0  0  0  0  0  0  0  0  0  0
    5.7300   -1.8700    1.3210 C   0  0  0  0  0  0  0  0  0  0  0  0
    6.9080   -2.5920    1.8630 C   0  0  0  0  0  0  0  0  0  0  0  0
    7.7520   -2.7700    0.6580 C   0  0  0  0  0  0  0  0  0  0  0  0
    7.1530   -2.2500   -0.3510 N   0  0  0  0  0  0  0  0  0  0  0  0
    3.7540   -0.4790   -0.3980 C   0  0  0  0  0  0  0  0  0  0  0  0
   -1.4720    0.7260    0.6870 C   0  0  0  0  0  0  0  0  0  0  0  0
   -1.5150   -0.7170    0.8170 C   0  0  0  0  0  0  0  0  0  0  0  0
   -1.4940   -1.3240    1.9280 O   0  0  0  0  0  0  0  0  0  0  0  0
   -1.5870   -1.5430   -0.3230 N   0  0  0  0  0  0  0  0  0  0  0  0
   -1.6390   -1.0580   -1.6780 C   0  0  0  0  0  0  0  0  0  0  0  0
   -1.8680   -2.1980   -2.6630 C   0  0  0  0  0  0  0  0  0  0  0  0
   -2.9350   -3.1460   -2.2430 C   0  0  0  0  0  0  0  0  0  0  0  0
   -2.8920   -3.4960   -0.7880 C   0  0  1  0  0  0  0  0  0  0  0  0
   -2.9720   -4.9970   -0.5860 C   0  0  0  0  0  0  0  0  0  0  0  0
   -1.6090   -3.0140   -0.1960 C   0  0  0  0  0  0  0  0  0  0  0  0
   -2.7130    1.3980    0.6960 C   0  0  0  0  0  0  0  0  0  0  0  0
   -2.7780    2.7810    0.5800 C   0  0  0  0  0  0  0  0  0  0  0  0
   -4.1020    3.4400    0.6960 C   0  0  0  0  0  0  0  0  0  0  0  0
   -4.4270    4.6710    0.9310 C   0  0  0  0  0  0  0  0  0  0  0  0
   -5.8990    4.8220    0.9410 C   0  0  0  0  0  0  0  0  0  0  0  0
   -6.4040    3.4860    0.6630 C   0  0  0  0  0  0  0  0  0  0  0  0
   -5.3610    2.6930    0.5240 C   0  0  0  0  0  0  0  0  0  0  0  0
   -5.5560    1.3690    0.2430 F   0  0  0  0  0  0  0  0  0  0  0  0
  1  2  1  0
  2  3  2  0
  2 34  1  0
  3  4  1  0
  4  5  1  0
  4 23  2  0
  5  6  1  0
  5 10  1  0
  6  7  1  0
  7  8  1  1
  7  9  1  0
 10 11  2  0
 10 12  1  0
 12 13  2  0
 12 22  1  0
 13 14  1  0
 14 15  2  0
 15 16  1  0
 16 17  1  0
 16 22  2  0
 17 18  2  0
 17 21  1  0
 18 19  1  0
 19 20  1  0
 20 21  2  0
 23 24  1  0
 23 33  1  0
 24 25  2  0
 24 26  1  0
 26 27  1  0
 26 32  1  0
 27 28  1  0
 28 29  1  0
 29 30  1  0
 30 31  1  6
 30 32  1  0
 33 34  2  0
 34 35  1  0
 35 36  2  0
 35 39  1  0
 36 37  1  0
 37 38  1  0
 38 39  2  0
 39 40  1  0
M  END
