
     RDKit          3D

 40 44  0  0  0  0  0  0  0  0999 V2000
    2.9190    2.3240   -2.4390 C   0  0  0  0  0  0  0  0  0  0  0  0
    2.9790    2.0560   -0.9320 C   0  0  0  0  0  0  0  0  0  0  0  0
    3.2160    0.6540   -0.6250 C   0  0  0  0  0  0  0  0  0  0  0  0
    2.5750   -0.1860    0.1030 C   0  0  0  0  0  0  0  0  0  0  0  0
    1.3220    0.2560    0.8170 C   0  0  0  0  0  0  0  0  0  0  0  0
    0.1550   -0.5170    0.4270 N   0  0  0  0  0  0  0  0  0  0  0  0
    0.0480   -1.9260    0.7600 C   0  0  0  0  0  0  0  0  0  0  0  0
   -1.3010   -2.5280    0.6680 C   0  0  0  0  0  0  0  0  0  0  0  0
   -2.2610   -1.8560   -0.0900 N   0  0  0  0  0  0  0  0  0  0  0  0
   -3.5860   -1.7130    0.2720 C   0  0  0  0  0  0  0  0  0  0  0  0
   -4.4570   -2.8780    0.0360 C   0  0  0  0  0  0  0  0  0  0  0  0
   -5.7300   -2.6850   -0.5460 C   0  0  0  0  0  0  0  0  0  0  0  0
   -6.6150   -3.6930   -0.8050 C   0  0  0  0  0  0  0  0  0  0  0  0
   -6.2900   -4.9970   -0.4980 C   0  0  0  0  0  0  0  0  0  0  0  0
   -7.1830   -5.9770   -0.7600 F   0  0  0  0  0  0  0  0  0  0  0  0
   -5.0610   -5.2180    0.0680 C   0  0  0  0  0  0  0  0  0  0  0  0
   -4.1550   -4.1790    0.3340 C   0  0  0  0  0  0  0  0  0  0  0  0
   -1.7130   -0.9310   -1.0700 C   0  0  0  0  0  0  0  0  0  0  0  0
   -0.8780    0.0840   -0.2950 C   0  0  0  0  0  0  0  0  0  0  0  0
   -1.2460    1.3310   -0.3440 C   0  0  0  0  0  0  0  0  0  0  0  0
   -2.4060    1.7170   -1.2230 C   0  0  0  0  0  0  0  0  0  0  0  0
   -2.5600    3.0800   -1.1630 O   0  0  0  0  0  0  0  0  0  0  0  0
   -2.0830    3.4850    0.0530 C   0  0  2  0  0  0  0  0  0  0  0  0
   -2.9900    3.2990    1.2080 C   0  0  0  0  0  0  0  0  0  0  0  0
   -1.6020    4.8790   -0.1120 C   0  0  0  0  0  0  0  0  0  0  0  0
   -2.0250    6.0110    0.5180 C   0  0  0  0  0  0  0  0  0  0  0  0
   -1.2760    7.0560    0.0320 C   0  0  0  0  0  0  0  0  0  0  0  0
   -0.4140    6.4750   -0.8970 C   0  0  0  0  0  0  0  0  0  0  0  0
   -0.6470    5.1890   -0.9440 O   0  0  0  0  0  0  0  0  0  0  0  0
   -0.8320    2.5840    0.2830 C   0  0  0  0  0  0  0  0  0  0  0  0
    2.9630   -1.4780    0.2610 N   0  0  0  0  0  0  0  0  0  0  0  0
    3.8450   -2.2850    0.4490 C   0  0  0  0  0  0  0  0  0  0  0  0
    5.2670   -2.3020    0.6520 C   0  0  0  0  0  0  0  0  0  0  0  0
    5.9690   -3.5170    0.5420 C   0  0  0  0  0  0  0  0  0  0  0  0
    7.3370   -3.6280    0.6050 C   0  0  0  0  0  0  0  0  0  0  0  0
    8.0860   -2.4970    0.7880 C   0  0  0  0  0  0  0  0  0  0  0  0
    9.4470   -2.6120    0.8490 F   0  0  0  0  0  0  0  0  0  0  0  0
    7.4470   -1.2980    0.9020 C   0  0  0  0  0  0  0  0  0  0  0  0
    6.0410   -1.1840    0.8380 C   0  0  0  0  0  0  0  0  0  0  0  0
    5.5430    0.0460    1.0440 F   0  0  0  0  0  0  0  0  0  0  0  0
  1  2  1  0
  2  3  1  0
  3  4  2  3
  4  5  1  0
  4 31  1  0
  5  6  1  0
  6  7  1  0
  6 19  1  0
  7  8  1  0
  8  9  1  0
  9 10  1  0
  9 18  1  0
 10 11  1  0
 11 12  2  0
 11 17  1  0
 12 13  1  0
 13 14  2  0
 14 15  1  0
 14 16  1  0
 16 17  2  0
 18 19  1  0
 19 20  2  3
 20 21  1  0
 20 30  1  0
 21 22  1  0
 22 23  1  0
 23 24  1  1
 23 25  1  0
 23 30  1  0
 25 26  2  0
 25 29  1  0
 26 27  1  0
 27 28  2  0
 28 29  1  0
 31 32  2  3
 32 33  1  0
 33 34  2  0
 33 39  1  0
 34 35  1  0
 35 36  2  0
 36 37  1  0
 36 38  1  0
 38 39  2  0
 39 40  1  0
M  END
