
     RDKit          3D

 41 46  0  0  0  0  0  0  0  0999 V2000
    7.3760    0.1140    0.6350 C   0  0  0  0  0  0  0  0  0  0  0  0
    6.3880    1.2160    0.5290 C   0  0  0  0  0  0  0  0  0  0  0  0
    4.9380    0.7830    0.4940 C   0  0  2  0  0  0  0  0  0  0  0  0
    4.7420   -0.1060   -0.7090 C   0  0  0  0  0  0  0  0  0  0  0  0
    4.8090   -1.5630   -0.4000 C   0  0  0  0  0  0  0  0  0  0  0  0
    3.4840   -2.1250    0.0310 C   0  0  0  0  0  0  0  0  0  0  0  0
    2.7320   -1.9960    1.0740 C   0  0  0  0  0  0  0  0  0  0  0  0
    1.4150   -2.5660    1.4950 C   0  0  2  0  0  0  0  0  0  0  0  0
    1.4410   -3.9420    1.7840 O   0  0  0  0  0  0  0  0  0  0  0  0
    0.1940   -2.2460    0.7570 C   0  0  2  0  0  0  0  0  0  0  0  0
   -0.6150   -3.5390    0.4880 C   0  0  0  0  0  0  0  0  0  0  0  0
   -0.0110   -3.5240   -0.8790 C   0  0  0  0  0  0  0  0  0  0  0  0
    0.2060   -2.0010   -0.6900 C   0  0  1  0  0  0  0  0  0  0  0  0
   -1.0580   -1.3380   -1.1450 C   0  0  0  0  0  0  0  0  0  0  0  0
   -1.2660    0.0360   -0.7160 N   0  0  0  0  0  0  0  0  0  0  0  0
   -2.3940   -0.0350    0.2650 C   0  0  0  0  0  0  0  0  0  0  0  0
   -3.5480    0.8200   -0.0050 C   0  0  2  0  0  0  0  0  0  0  0  0
   -3.6050    2.0730    0.8490 C   0  0  0  0  0  0  0  0  0  0  0  0
   -4.2470    1.7980    2.1910 C   0  0  0  0  0  0  0  0  0  0  0  0
   -5.7020    1.4380    2.0210 C   0  0  0  0  0  0  0  0  0  0  0  0
   -5.7480    0.2370    1.1270 C   0  0  0  0  0  0  0  0  0  0  0  0
   -6.8360   -0.6420    1.2270 C   0  0  0  0  0  0  0  0  0  0  0  0
   -6.9710   -1.7650    0.4460 C   0  0  0  0  0  0  0  0  0  0  0  0
   -8.3530   -2.8350    0.6100 Cl  0  0  0  0  0  0  0  0  0  0  0  0
   -5.9610   -1.9950   -0.4650 C   0  0  0  0  0  0  0  0  0  0  0  0
   -4.8840   -1.1480   -0.5830 C   0  0  0  0  0  0  0  0  0  0  0  0
   -4.7820   -0.0180    0.2280 C   0  0  0  0  0  0  0  0  0  0  0  0
   -3.6910    1.2990   -1.4360 C   0  0  0  0  0  0  0  0  0  0  0  0
   -2.8120    2.4400   -1.5080 O   0  0  0  0  0  0  0  0  0  0  0  0
   -1.3890    2.3190   -1.5160 C   0  0  0  0  0  0  0  0  0  0  0  0
   -0.9300    3.5360   -1.9500 C   0  0  0  0  0  0  0  0  0  0  0  0
    0.4260    3.6580   -2.0400 C   0  0  0  0  0  0  0  0  0  0  0  0
    1.3290    2.6070   -1.7100 C   0  0  0  0  0  0  0  0  0  0  0  0
    0.8310    1.3970   -1.2770 C   0  0  0  0  0  0  0  0  0  0  0  0
   -0.5460    1.2250   -1.1700 C   0  0  0  0  0  0  0  0  0  0  0  0
    2.6990    3.0830   -1.9240 C   0  0  0  0  0  0  0  0  0  0  0  0
    2.9310    3.8420   -2.9910 O   0  0  0  0  0  0  0  0  0  0  0  0
    3.9040    2.8990   -1.1940 N   0  0  0  0  0  0  0  0  0  0  0  0
    3.9930    2.2720    0.4140 S   0  0  1  0  0  0  0  0  0  0  0  0
    2.6230    2.0320    0.9260 O   0  0  0  0  0  0  0  0  0  0  0  0
    4.6220    3.2970    1.3480 O   0  0  0  0  0  0  0  0  0  0  0  0
  1  2  1  0
  3  2  1  6
  3  4  1  0
  3 39  1  0
  4  5  1  0
  5  6  1  0
  6  7  2  0
  7  8  1  0
  8  9  1  6
  8 10  1  0
 10 11  1  6
 10 13  1  0
 11 12  1  0
 13 12  1  6
 13 14  1  0
 14 15  1  0
 15 16  1  0
 15 35  1  0
 17 16  1  6
 17 18  1  0
 17 27  1  0
 17 28  1  0
 18 19  1  0
 19 20  1  0
 20 21  1  0
 21 22  2  0
 21 27  1  0
 22 23  1  0
 23 24  1  0
 23 25  2  0
 25 26  1  0
 26 27  2  0
 28 29  1  0
 29 30  1  0
 30 31  2  0
 30 35  1  0
 31 32  1  0
 32 33  2  0
 33 34  1  0
 33 36  1  0
 34 35  2  0
 36 37  2  0
 36 38  1  0
 39 38  1  6
 39 40  2  0
 39 41  2  0
M  END
