
     RDKit          3D

 40 44  0  0  0  0  0  0  0  0999 V2000
   -1.7060    1.5630   -3.0160 C   0  0  0  0  0  0  0  0  0  0  0  0
   -0.4710    1.6110   -2.3290 O   0  0  0  0  0  0  0  0  0  0  0  0
   -0.0630    0.5680   -1.4860 C   0  0  0  0  0  0  0  0  0  0  0  0
   -0.8740   -0.5610   -1.2980 C   0  0  0  0  0  0  0  0  0  0  0  0
   -0.4640   -1.5750   -0.4700 C   0  0  0  0  0  0  0  0  0  0  0  0
   -1.2770   -2.7690   -0.2810 C   0  0  0  0  0  0  0  0  0  0  0  0
   -2.5180   -2.6710   -0.9840 N   0  0  0  0  0  0  0  0  0  0  0  0
   -3.4780   -1.7130   -0.5980 C   0  0  0  0  0  0  0  0  0  0  0  0
   -3.2050   -0.9590    0.3820 O   0  0  0  0  0  0  0  0  0  0  0  0
   -4.7090   -1.5710   -1.2570 O   0  0  0  0  0  0  0  0  0  0  0  0
   -5.5600   -0.5930   -0.7790 C   0  0  0  0  0  0  0  0  0  0  0  0
   -5.4970    0.6630   -1.3350 C   0  0  0  0  0  0  0  0  0  0  0  0
   -6.2980    1.7050   -0.9340 C   0  0  0  0  0  0  0  0  0  0  0  0
   -6.2250    3.0590   -1.5390 C   0  0  0  0  0  0  0  0  0  0  0  0
   -7.2100    1.4610    0.0830 C   0  0  0  0  0  0  0  0  0  0  0  0
   -8.0420    2.4860    0.5230 O   0  0  0  0  0  0  0  0  0  0  0  0
   -7.3110    0.2190    0.6730 C   0  0  0  0  0  0  0  0  0  0  0  0
   -8.3070    0.0320    1.7540 C   0  0  0  0  0  0  0  0  0  0  0  0
   -7.7700    0.6390    2.8980 F   0  0  0  0  0  0  0  0  0  0  0  0
   -6.4840   -0.7780    0.2270 C   0  0  0  0  0  0  0  0  0  0  0  0
   -6.5890   -2.1160    0.8590 C   0  0  0  0  0  0  0  0  0  0  0  0
    0.7730   -1.4540    0.1750 C   0  0  0  0  0  0  0  0  0  0  0  0
    1.6020   -0.3810    0.0290 C   0  0  0  0  0  0  0  0  0  0  0  0
    1.1330    0.6300   -0.8300 C   0  0  0  0  0  0  0  0  0  0  0  0
    2.9070   -0.2600    0.6880 C   0  0  0  0  0  0  0  0  0  0  0  0
    2.9940   -1.0600    1.8750 N   0  0  0  0  0  0  0  0  0  0  0  0
    4.2140   -1.1240    2.6450 C   0  0  0  0  0  0  0  0  0  0  0  0
    4.2220   -1.8450    3.6700 O   0  0  0  0  0  0  0  0  0  0  0  0
    5.4240   -0.4210    2.3240 C   0  0  0  0  0  0  0  0  0  0  0  0
    6.6530   -0.3420    2.8910 C   0  0  0  0  0  0  0  0  0  0  0  0
    7.5190    0.4280    2.2950 N   0  0  0  0  0  0  0  0  0  0  0  0
    7.4280    1.0780    1.3390 C   0  0  0  0  0  0  0  0  0  0  0  0
    8.2010    2.0300    0.4380 C   0  0  2  0  0  0  0  0  0  0  0  0
    7.5290    2.1510   -0.9040 C   0  0  0  0  0  0  0  0  0  0  0  0
    8.1900    1.0790   -1.7040 C   0  0  0  0  0  0  0  0  0  0  0  0
    9.4070    0.7240   -0.9190 C   0  0  0  0  0  0  0  0  0  0  0  0
    9.4300    1.4600    0.2350 O   0  0  0  0  0  0  0  0  0  0  0  0
    5.6260    0.7050    0.8650 S   0  0  0  0  0  0  0  0  0  0  0  0
    1.8460   -1.8190    2.3220 C   0  0  0  0  0  0  0  0  0  0  0  0
    1.2360   -2.5480    1.1070 C   0  0  0  0  0  0  0  0  0  0  0  0
  1  2  1  0
  2  3  1  0
  3  4  2  0
  3 24  1  0
  4  5  1  0
  5  6  1  0
  5 22  2  0
  6  7  1  0
  7  8  1  0
  8  9  2  0
  8 10  1  0
 10 11  1  0
 11 12  2  0
 11 20  1  0
 12 13  1  0
 13 14  1  0
 13 15  2  0
 15 16  1  0
 15 17  1  0
 17 18  1  0
 17 20  2  0
 18 19  1  0
 20 21  1  0
 22 23  1  0
 22 40  1  0
 23 24  2  0
 23 25  1  0
 25 26  1  0
 26 27  1  0
 26 39  1  0
 27 28  2  0
 27 29  1  0
 29 30  2  0
 29 38  1  0
 30 31  1  0
 31 32  2  0
 33 32  1  1
 32 38  1  0
 33 34  1  0
 33 37  1  0
 34 35  1  0
 35 36  1  0
 36 37  1  0
 39 40  1  0
M  END
