
     RDKit          3D

 41 45  0  0  0  0  0  0  0  0999 V2000
   -3.3520    4.6720    1.8380 C   0  0  0  0  0  0  0  0  0  0  0  0
   -3.7750    3.3420    2.4360 C   0  0  0  0  0  0  0  0  0  0  0  0
   -3.6920    2.2790    1.4500 N   0  0  0  0  0  0  0  0  0  0  0  0
   -2.6480    1.5090    1.1980 C   0  0  0  0  0  0  0  0  0  0  0  0
   -1.4930    1.5180    1.7450 O   0  0  0  0  0  0  0  0  0  0  0  0
   -3.0110    0.6430    0.1980 N   0  0  0  0  0  0  0  0  0  0  0  0
   -2.0990   -0.3360   -0.3290 C   0  0  0  0  0  0  0  0  0  0  0  0
   -2.2160   -1.6510    0.3940 C   0  0  0  0  0  0  0  0  0  0  0  0
   -3.3570   -2.2270    0.4410 O   0  0  0  0  0  0  0  0  0  0  0  0
   -1.1210   -2.3260    1.0550 C   0  0  0  0  0  0  0  0  0  0  0  0
    0.1950   -1.8750    0.9030 C   0  0  0  0  0  0  0  0  0  0  0  0
    1.2640   -2.4660    1.5210 C   0  0  0  0  0  0  0  0  0  0  0  0
    2.6240   -2.0850    1.3980 N   0  0  0  0  0  0  0  0  0  0  0  0
    3.1630   -1.3860    0.3110 C   0  0  0  0  0  0  0  0  0  0  0  0
    2.4400   -1.0560   -0.6620 O   0  0  0  0  0  0  0  0  0  0  0  0
    4.5690   -0.9930    0.2230 C   0  0  0  0  0  0  0  0  0  0  0  0
    5.3140   -1.2730    1.1870 O   0  0  0  0  0  0  0  0  0  0  0  0
    5.1130   -0.3210   -0.8900 N   0  0  0  0  0  0  0  0  0  0  0  0
    6.5130    0.0890   -0.9990 C   0  0  1  0  0  0  0  0  0  0  0  0
    7.1900   -0.7350   -2.1060 C   0  0  0  0  0  0  0  0  0  0  0  0
    6.5610    1.4890   -1.4590 C   0  0  0  0  0  0  0  0  0  0  0  0
    5.8610    1.9870   -2.4660 N   0  0  0  0  0  0  0  0  0  0  0  0
    6.1400    3.2920   -2.6120 C   0  0  0  0  0  0  0  0  0  0  0  0
    7.0670    3.6080   -1.6360 C   0  0  0  0  0  0  0  0  0  0  0  0
    7.2980    2.4750   -0.9500 N   0  0  0  0  0  0  0  0  0  0  0  0
    8.2010    2.3480    0.1670 C   0  0  0  0  0  0  0  0  0  0  0  0
    0.9680   -3.5630    2.3270 C   0  0  0  0  0  0  0  0  0  0  0  0
   -0.3170   -4.0200    2.4870 C   0  0  0  0  0  0  0  0  0  0  0  0
   -1.3930   -3.4150    1.8560 C   0  0  0  0  0  0  0  0  0  0  0  0
   -2.7700   -3.9670    2.0590 C   0  0  0  0  0  0  0  0  0  0  0  0
   -2.6380   -5.0550    2.9470 O   0  0  0  0  0  0  0  0  0  0  0  0
   -4.3030    0.9080   -0.1470 C   0  0  0  0  0  0  0  0  0  0  0  0
   -5.1710    0.3190   -1.1180 C   0  0  0  0  0  0  0  0  0  0  0  0
   -4.9100   -0.6910   -1.9470 C   0  0  0  0  0  0  0  0  0  0  0  0
   -5.9380   -1.0990   -2.8140 C   0  0  0  0  0  0  0  0  0  0  0  0
   -5.9290   -2.1700   -3.8230 C   0  0  0  0  0  0  0  0  0  0  0  0
   -7.2540   -0.0480   -2.4390 S   0  0  0  0  0  0  0  0  0  0  0  0
   -6.4060    0.8820   -1.1640 C   0  0  0  0  0  0  0  0  0  0  0  0
   -6.8650    1.9320   -0.3750 C   0  0  0  0  0  0  0  0  0  0  0  0
   -6.0050    2.4860    0.5620 C   0  0  0  0  0  0  0  0  0  0  0  0
   -4.7330    1.9450    0.6450 C   0  0  0  0  0  0  0  0  0  0  0  0
  1  2  1  0
  2  3  1  0
  3  4  1  0
  3 41  1  0
  4  5  2  0
  4  6  1  0
  6  7  1  0
  6 32  1  0
  7  8  1  0
  8  9  2  0
  8 10  1  0
 10 11  2  0
 10 29  1  0
 11 12  1  0
 12 13  1  0
 12 27  2  0
 13 14  1  0
 14 15  2  0
 14 16  1  0
 16 17  2  0
 16 18  1  0
 18 19  1  0
 19 20  1  6
 19 21  1  0
 21 22  2  0
 21 25  1  0
 22 23  1  0
 23 24  2  0
 24 25  1  0
 25 26  1  0
 27 28  1  0
 28 29  2  0
 29 30  1  0
 30 31  1  0
 32 33  2  0
 32 41  1  0
 33 34  1  0
 33 38  1  0
 34 35  2  0
 35 36  1  0
 35 37  1  0
 37 38  1  0
 38 39  2  0
 39 40  1  0
 40 41  2  0
M  END
