
     RDKit          3D

 41 45  0  0  0  0  0  0  0  0999 V2000
   -4.3620   -3.4430   -1.4060 N   0  0  0  0  0  0  0  0  0  0  0  0
   -3.4530   -2.5030   -0.8260 C   0  0  0  0  0  0  0  0  0  0  0  0
   -2.5970   -2.8790    0.0210 O   0  0  0  0  0  0  0  0  0  0  0  0
   -3.5280   -1.1010   -1.2350 C   0  0  0  0  0  0  0  0  0  0  0  0
   -3.0600   -0.1030   -0.2310 C   0  0  0  0  0  0  0  0  0  0  0  0
   -3.8860   -0.1050    0.9370 N   0  0  0  0  0  0  0  0  0  0  0  0
   -5.1530    0.6070    0.9230 C   0  0  0  0  0  0  0  0  0  0  0  0
   -5.8720    0.5770    1.9520 O   0  0  0  0  0  0  0  0  0  0  0  0
   -5.6270    1.3340   -0.1810 N   0  0  0  0  0  0  0  0  0  0  0  0
   -6.8200    2.0570   -0.3070 C   0  0  0  0  0  0  0  0  0  0  0  0
   -7.7660    2.2070    0.6410 C   0  0  0  0  0  0  0  0  0  0  0  0
   -8.9340    2.9380    0.4400 C   0  0  0  0  0  0  0  0  0  0  0  0
   -9.1480    3.5400   -0.7740 C   0  0  0  0  0  0  0  0  0  0  0  0
   -8.1760    3.3830   -1.7420 C   0  0  0  0  0  0  0  0  0  0  0  0
   -7.0630    2.6700   -1.5080 N   0  0  0  0  0  0  0  0  0  0  0  0
   -3.4480   -0.9010    2.3920 S   0  0  1  0  0  0  0  0  0  0  0  0
   -4.1190   -0.1180    3.5500 O   0  0  0  0  0  0  0  0  0  0  0  0
   -4.0440   -2.2760    2.5320 O   0  0  0  0  0  0  0  0  0  0  0  0
   -1.7170   -0.8960    2.6590 C   0  0  0  0  0  0  0  0  0  0  0  0
   -1.0930   -0.3290    3.7790 C   0  0  0  0  0  0  0  0  0  0  0  0
    0.2600   -0.5220    3.6320 C   0  0  0  0  0  0  0  0  0  0  0  0
    0.4260   -1.2050    2.4200 C   0  0  0  0  0  0  0  0  0  0  0  0
    1.7470   -1.6220    1.8650 C   0  0  0  0  0  0  0  0  0  0  0  0
    1.5800   -2.0950    0.5270 N   0  0  0  0  0  0  0  0  0  0  0  0
    2.8240   -2.5530   -0.0640 C   0  0  0  0  0  0  0  0  0  0  0  0
    3.8550   -1.4350   -0.0860 C   0  0  0  0  0  0  0  0  0  0  0  0
    3.2290   -0.3240   -0.8340 C   0  0  0  0  0  0  0  0  0  0  0  0
    3.8480    0.7750   -1.0050 N   0  0  0  0  0  0  0  0  0  0  0  0
    5.1470    1.0750   -0.5310 C   0  0  0  0  0  0  0  0  0  0  0  0
    5.2760    1.6210    0.7260 C   0  0  0  0  0  0  0  0  0  0  0  0
    6.5210    1.9430    1.2580 C   0  0  0  0  0  0  0  0  0  0  0  0
    7.6480    1.7120    0.5130 C   0  0  0  0  0  0  0  0  0  0  0  0
    7.5320    1.1660   -0.7480 C   0  0  0  0  0  0  0  0  0  0  0  0
    8.6620    0.9300   -1.5040 C   0  0  0  0  0  0  0  0  0  0  0  0
    8.5670    0.3830   -2.7710 C   0  0  0  0  0  0  0  0  0  0  0  0
    7.2980    0.0740   -3.2670 C   0  0  0  0  0  0  0  0  0  0  0  0
    6.1550    0.2960   -2.5390 C   0  0  0  0  0  0  0  0  0  0  0  0
    6.2790    0.8430   -1.2800 C   0  0  0  0  0  0  0  0  0  0  0  0
    1.8720   -0.5330   -1.3710 C   0  0  0  0  0  0  0  0  0  0  0  0
    0.9470   -1.1590   -0.3490 C   0  0  0  0  0  0  0  0  0  0  0  0
   -0.7730   -1.3810    1.9220 O   0  0  0  0  0  0  0  0  0  0  0  0
  1  2  1  0
  2  3  2  0
  2  4  1  0
  4  5  1  0
  5  6  1  0
  6  7  1  0
 16  6  1  6
  7  8  2  0
  7  9  1  0
  9 10  1  0
 10 11  2  0
 10 15  1  0
 11 12  1  0
 12 13  2  0
 13 14  1  0
 14 15  2  0
 16 17  2  0
 16 18  2  0
 16 19  1  0
 19 20  2  0
 19 41  1  0
 20 21  1  0
 21 22  2  0
 22 23  1  0
 22 41  1  0
 23 24  1  0
 24 25  1  0
 24 40  1  0
 25 26  1  0
 26 27  1  0
 27 28  2  3
 27 39  1  0
 28 29  1  0
 29 30  2  0
 29 38  1  0
 30 31  1  0
 31 32  2  0
 32 33  1  0
 33 34  2  0
 33 38  1  0
 34 35  1  0
 35 36  2  0
 36 37  1  0
 37 38  2  0
 39 40  1  0
M  END
