
     RDKit          3D

 41 45  0  0  0  0  0  0  0  0999 V2000
  -11.2500    1.7460    3.5880 C   0  0  0  0  0  0  0  0  0  0  0  0
  -10.4710    1.6390    2.4510 O   0  0  0  0  0  0  0  0  0  0  0  0
  -10.7790    0.5010    1.7100 C   0  0  0  0  0  0  0  0  0  0  0  0
   -9.9390    0.3810    0.4800 C   0  0  0  0  0  0  0  0  0  0  0  0
   -8.4760    0.3000    0.8010 C   0  0  0  0  0  0  0  0  0  0  0  0
   -8.1860    0.3440    2.0120 O   0  0  0  0  0  0  0  0  0  0  0  0
   -7.5040    0.1810   -0.2110 N   0  0  0  0  0  0  0  0  0  0  0  0
   -6.1120    0.1000   -0.0110 C   0  0  0  0  0  0  0  0  0  0  0  0
   -5.4970    0.2530    1.2070 C   0  0  0  0  0  0  0  0  0  0  0  0
   -4.1190    0.1930    1.2830 C   0  0  0  0  0  0  0  0  0  0  0  0
   -3.2850   -0.0160    0.1820 C   0  0  0  0  0  0  0  0  0  0  0  0
   -1.9070   -0.0630    0.3430 N   0  0  0  0  0  0  0  0  0  0  0  0
   -0.9280   -0.2490   -0.6370 C   0  0  0  0  0  0  0  0  0  0  0  0
   -1.2610   -0.3980   -1.8330 O   0  0  0  0  0  0  0  0  0  0  0  0
    0.5430   -0.2730   -0.2790 C   0  0  0  0  0  0  0  0  0  0  0  0
    1.3400   -0.4870   -1.5230 C   0  0  1  0  0  0  0  0  0  0  0  0
    1.1310    0.5310   -2.4690 O   0  0  0  0  0  0  0  0  0  0  0  0
    2.7710   -0.4590   -1.1750 C   0  0  0  0  0  0  0  0  0  0  0  0
    3.5180   -1.6070   -1.0920 C   0  0  0  0  0  0  0  0  0  0  0  0
    4.8780   -1.5460   -0.7590 C   0  0  0  0  0  0  0  0  0  0  0  0
    5.4670   -0.3170   -0.5130 C   0  0  0  0  0  0  0  0  0  0  0  0
    6.8460   -0.2760   -0.1770 N   0  0  0  0  0  0  0  0  0  0  0  0
    7.8230   -1.0470   -0.6340 N   0  0  0  0  0  0  0  0  0  0  0  0
    8.9900   -0.6830   -0.0640 C   0  0  0  0  0  0  0  0  0  0  0  0
    8.7510    0.3410    0.7730 N   0  0  0  0  0  0  0  0  0  0  0  0
    7.4340    0.5770    0.6910 C   0  0  0  0  0  0  0  0  0  0  0  0
    6.8400    1.4840    1.3480 O   0  0  0  0  0  0  0  0  0  0  0  0
    9.8290    0.9500    1.5370 C   0  0  0  0  0  0  0  0  0  0  0  0
   11.0890    0.7810    0.6880 C   0  0  0  0  0  0  0  0  0  0  0  0
   11.3500   -0.6160    0.4540 N   0  0  0  0  0  0  0  0  0  0  0  0
   11.7850   -1.3310    1.6170 C   0  0  0  0  0  0  0  0  0  0  0  0
   10.3250   -1.2820   -0.2920 C   0  0  0  0  0  0  0  0  0  0  0  0
    4.7220    0.8350   -0.5960 C   0  0  0  0  0  0  0  0  0  0  0  0
    3.3840    0.7450   -0.9270 C   0  0  0  0  0  0  0  0  0  0  0  0
   -3.9190   -0.1650   -1.0140 C   0  0  0  0  0  0  0  0  0  0  0  0
   -5.3140   -0.1100   -1.1230 C   0  0  0  0  0  0  0  0  0  0  0  0
   -5.8750   -0.3240   -2.4830 C   0  0  0  0  0  0  0  0  0  0  0  0
   -5.4970    0.3830   -3.5310 C   0  0  0  0  0  0  0  0  0  0  0  0
   -6.0180    0.1410   -4.7900 C   0  0  0  0  0  0  0  0  0  0  0  0
   -7.1850   -1.2610   -4.4340 S   0  0  0  0  0  0  0  0  0  0  0  0
   -6.8230   -1.3390   -2.6480 C   0  0  0  0  0  0  0  0  0  0  0  0
  1  2  1  0
  2  3  1  0
  3  4  1  0
  4  5  1  0
  5  6  2  0
  5  7  1  0
  7  8  1  0
  8  9  2  0
  8 36  1  0
  9 10  1  0
 10 11  2  0
 11 12  1  0
 11 35  1  0
 12 13  1  0
 13 14  2  0
 13 15  1  0
 15 16  1  0
 16 17  1  6
 16 18  1  0
 18 19  2  0
 18 34  1  0
 19 20  1  0
 20 21  2  0
 21 22  1  0
 21 33  1  0
 22 23  1  0
 22 26  1  0
 23 24  2  0
 24 25  1  0
 24 32  1  0
 25 26  1  0
 25 28  1  0
 26 27  2  0
 28 29  1  0
 29 30  1  0
 30 31  1  0
 30 32  1  0
 33 34  2  0
 35 36  2  0
 36 37  1  0
 37 38  1  0
 37 41  2  0
 38 39  2  0
 39 40  1  0
 40 41  1  0
M  END
