
     RDKit          3D

 41 44  0  0  0  0  0  0  0  0999 V2000
    3.3700    1.5440    4.8780 C   0  0  0  0  0  0  0  0  0  0  0  0
    3.3010    1.2590    3.5860 C   0  0  0  0  0  0  0  0  0  0  0  0
    4.2470    1.8570    2.7880 O   0  0  0  0  0  0  0  0  0  0  0  0
    2.2720    0.3670    3.1010 C   0  0  0  0  0  0  0  0  0  0  0  0
    2.0210   -0.0450    1.8940 C   0  0  0  0  0  0  0  0  0  0  0  0
    0.9620   -0.9020    1.7340 F   0  0  0  0  0  0  0  0  0  0  0  0
    2.8240    0.3430    0.7520 C   0  0  0  0  0  0  0  0  0  0  0  0
    2.5740   -0.0610   -0.5100 C   0  0  0  0  0  0  0  0  0  0  0  0
    3.5010    0.4340   -1.5610 C   0  0  0  0  0  0  0  0  0  0  0  0
    3.3110    1.3060   -2.5150 C   0  0  0  0  0  0  0  0  0  0  0  0
    4.5510    1.5240   -3.4110 C   0  0  0  0  0  0  0  0  0  0  0  0
    2.1880    2.1520   -2.8450 C   0  0  0  0  0  0  0  0  0  0  0  0
    2.0220    2.5440   -4.0870 O   0  0  0  0  0  0  0  0  0  0  0  0
    1.1740    2.6670   -1.9970 N   0  0  0  0  0  0  0  0  0  0  0  0
    0.9510    4.1330   -1.8790 C   0  0  0  0  0  0  0  0  0  0  0  0
   -0.0440    4.6430   -2.8720 C   0  0  0  0  0  0  0  0  0  0  0  0
    0.2800    1.8570   -1.1770 C   0  0  0  0  0  0  0  0  0  0  0  0
    0.3440    2.1420    0.0710 O   0  0  0  0  0  0  0  0  0  0  0  0
   -0.6010    0.8210   -1.7300 C   0  0  0  0  0  0  0  0  0  0  0  0
   -1.0690   -0.2240   -0.7700 C   0  0  0  0  0  0  0  0  0  0  0  0
   -1.6390    0.1850    0.3260 C   0  0  0  0  0  0  0  0  0  0  0  0
   -1.7720    1.6050    0.4540 O   0  0  0  0  0  0  0  0  0  0  0  0
   -2.1530   -0.5410    1.4550 C   0  0  0  0  0  0  0  0  0  0  0  0
   -2.0360   -1.7920    1.4870 O   0  0  0  0  0  0  0  0  0  0  0  0
   -2.7930    0.1220    2.5420 N   0  0  0  0  0  0  0  0  0  0  0  0
   -3.2810   -0.7300    3.6330 C   0  0  0  0  0  0  0  0  0  0  0  0
   -4.6780   -0.2370    3.9410 C   0  0  0  0  0  0  0  0  0  0  0  0
   -4.6040    1.0360    4.4940 O   0  0  0  0  0  0  0  0  0  0  0  0
   -3.4600    1.7250    4.1800 C   0  0  0  0  0  0  0  0  0  0  0  0
   -3.0280    1.5150    2.7080 C   0  0  0  0  0  0  0  0  0  0  0  0
   -1.1270   -1.6440   -1.1520 C   0  0  0  0  0  0  0  0  0  0  0  0
   -0.0980   -2.4720   -1.4050 C   0  0  0  0  0  0  0  0  0  0  0  0
   -0.2440   -3.7410   -1.7740 C   0  0  0  0  0  0  0  0  0  0  0  0
    0.8250   -4.5770   -1.8990 C   0  0  0  0  0  0  0  0  0  0  0  0
    0.9180   -6.0120   -2.2780 C   0  0  0  0  0  0  0  0  0  0  0  0
    2.1810   -3.6160   -1.5030 S   0  0  0  0  0  0  0  0  0  0  0  0
    1.2010   -2.0210   -1.1550 C   0  0  0  0  0  0  0  0  0  0  0  0
    1.5150   -0.9200   -0.8300 N   0  0  0  0  0  0  0  0  0  0  0  0
   -1.6250   -4.2720   -2.2040 C   0  0  0  0  0  0  0  0  0  0  0  0
   -2.5350   -3.0950   -2.4770 C   0  0  0  0  0  0  0  0  0  0  0  0
   -2.5090   -2.2800   -1.1790 C   0  0  0  0  0  0  0  0  0  0  0  0
  1  2  2  0
  2  3  1  0
  2  4  1  0
  4  5  2  3
  5  6  1  0
  5  7  1  0
  7  8  2  3
  8  9  1  0
  8 38  1  0
  9 10  2  0
 10 11  1  0
 10 12  1  0
 12 13  2  0
 12 14  1  0
 14 15  1  0
 14 17  1  0
 15 16  1  0
 17 18  2  0
 17 19  1  0
 19 20  1  0
 20 21  2  3
 20 31  1  0
 21 22  1  0
 21 23  1  0
 23 24  2  0
 23 25  1  0
 25 26  1  0
 25 30  1  0
 26 27  1  0
 27 28  1  0
 28 29  1  0
 29 30  1  0
 31 32  2  0
 31 41  1  0
 32 33  1  0
 32 37  1  0
 33 34  2  0
 33 39  1  0
 34 35  1  0
 34 36  1  0
 36 37  1  0
 37 38  2  0
 39 40  1  0
 40 41  1  0
M  END
