
     RDKit          3D

 41 45  0  0  0  0  0  0  0  0999 V2000
    5.6760   -2.4020    3.8090 C   0  0  0  0  0  0  0  0  0  0  0  0
    5.2370   -1.8440    2.5100 C   0  0  0  0  0  0  0  0  0  0  0  0
    4.0900   -2.1950    1.9990 C   0  0  0  0  0  0  0  0  0  0  0  0
    3.2710   -3.1590    2.7760 C   0  0  0  0  0  0  0  0  0  0  0  0
    1.9690   -3.2180    2.7190 C   0  0  0  0  0  0  0  0  0  0  0  0
    0.9760   -2.4320    1.9480 C   0  0  0  0  0  0  0  0  0  0  0  0
    1.1830   -1.6460    0.9130 C   0  0  0  0  0  0  0  0  0  0  0  0
    0.1150   -0.9760    0.3040 N   0  0  0  0  0  0  0  0  0  0  0  0
   -1.2470   -1.0040    0.6110 C   0  0  0  0  0  0  0  0  0  0  0  0
   -1.6330   -1.7290    1.5720 O   0  0  0  0  0  0  0  0  0  0  0  0
   -2.2480   -0.2300   -0.1320 C   0  0  0  0  0  0  0  0  0  0  0  0
   -3.5820   -0.5100    0.0260 C   0  0  0  0  0  0  0  0  0  0  0  0
   -4.5860    0.1990   -0.6440 C   0  0  0  0  0  0  0  0  0  0  0  0
   -5.9500   -0.0670   -0.4710 N   0  0  0  0  0  0  0  0  0  0  0  0
   -6.5480   -1.1150    0.2690 C   0  0  0  0  0  0  0  0  0  0  0  0
   -5.8670   -1.9420    0.8610 O   0  0  0  0  0  0  0  0  0  0  0  0
   -8.0490   -1.2410    0.3470 C   0  0  1  0  0  0  0  0  0  0  0  0
   -8.6040   -2.6610    0.2240 C   0  0  0  0  0  0  0  0  0  0  0  0
   -8.5780   -1.9130    1.5390 C   0  0  0  0  0  0  0  0  0  0  0  0
   -4.1930    1.2230   -1.4990 C   0  0  0  0  0  0  0  0  0  0  0  0
   -5.1390    1.9540   -2.1870 C   0  0  0  0  0  0  0  0  0  0  0  0
   -4.7340    2.9890   -3.0530 C   0  0  0  0  0  0  0  0  0  0  0  0
   -5.6980    3.7140   -3.7370 O   0  0  0  0  0  0  0  0  0  0  0  0
   -6.1970    4.8680   -3.1120 C   0  0  0  0  0  0  0  0  0  0  0  0
   -5.7670    5.1980   -1.9890 O   0  0  0  0  0  0  0  0  0  0  0  0
   -7.1410    5.6280   -3.7170 F   0  0  0  0  0  0  0  0  0  0  0  0
   -3.3960    3.2610   -3.2020 C   0  0  0  0  0  0  0  0  0  0  0  0
   -2.4810    2.5130   -2.5020 C   0  0  0  0  0  0  0  0  0  0  0  0
   -2.8560    1.4960   -1.6510 C   0  0  0  0  0  0  0  0  0  0  0  0
   -1.8700    0.7690   -0.9660 C   0  0  0  0  0  0  0  0  0  0  0  0
    2.5110   -1.3780    0.2770 C   0  0  0  0  0  0  0  0  0  0  0  0
    3.7270   -1.6010    0.7180 C   0  0  0  0  0  0  0  0  0  0  0  0
    5.0690   -1.1670   -0.3150 S   0  0  1  0  0  0  0  0  0  0  0  0
    6.1970   -2.1170   -0.0520 O   0  0  0  0  0  0  0  0  0  0  0  0
    4.6800   -1.2980   -1.7680 O   0  0  0  0  0  0  0  0  0  0  0  0
    5.5730    0.4110    0.0760 N   0  0  0  0  0  0  0  0  0  0  0  0
    4.5840    1.4180   -0.1220 C   0  0  0  0  0  0  0  0  0  0  0  0
    5.3760    2.7230   -0.2630 C   0  0  0  0  0  0  0  0  0  0  0  0
    6.8300    2.3120   -0.1520 C   0  0  0  0  0  0  0  0  0  0  0  0
    6.7400    0.8540   -0.6280 C   0  0  2  0  0  0  0  0  0  0  0  0
    6.5480    0.9040   -2.1220 C   0  0  0  0  0  0  0  0  0  0  0  0
  1  2  1  0
  2  3  2  3
  3  4  1  0
  3 32  1  0
  4  5  2  0
  5  6  1  0
  6  7  2  0
  7  8  1  0
  7 31  1  0
  8  9  1  0
  9 10  2  0
  9 11  1  0
 11 12  2  0
 11 30  1  0
 12 13  1  0
 13 14  1  0
 13 20  2  0
 14 15  1  0
 15 16  2  0
 17 15  1  1
 17 18  1  0
 17 19  1  0
 18 19  1  0
 20 21  1  0
 20 29  1  0
 21 22  2  0
 22 23  1  0
 22 27  1  0
 23 24  1  0
 24 25  2  0
 24 26  1  0
 27 28  2  0
 28 29  1  0
 29 30  2  0
 31 32  2  0
 32 33  1  0
 33 34  2  0
 33 35  2  0
 33 36  1  6
 36 37  1  0
 36 40  1  0
 37 38  1  0
 38 39  1  0
 39 40  1  0
 40 41  1  6
M  END
