
     RDKit          3D

 40 44  0  0  0  0  0  0  0  0999 V2000
   -7.9740    1.2650   -0.5350 C   0  0  0  0  0  0  0  0  0  0  0  0
   -7.6470   -0.0500    0.1270 C   0  0  0  0  0  0  0  0  0  0  0  0
   -6.2980   -0.3930    0.1230 O   0  0  0  0  0  0  0  0  0  0  0  0
   -5.2960    0.3950    0.7180 C   0  0  0  0  0  0  0  0  0  0  0  0
   -5.7430    1.1590    1.8850 C   0  0  0  0  0  0  0  0  0  0  0  0
   -4.0510    0.3880    0.1820 C   0  0  0  0  0  0  0  0  0  0  0  0
   -3.8210   -0.4590   -1.0200 C   0  0  0  0  0  0  0  0  0  0  0  0
   -4.5200   -1.2160   -1.6730 N   0  0  0  0  0  0  0  0  0  0  0  0
   -5.6240   -1.8680   -2.0010 C   0  0  0  0  0  0  0  0  0  0  0  0
   -6.6320   -1.4100   -2.6740 O   0  0  0  0  0  0  0  0  0  0  0  0
   -5.8610   -3.3200   -1.6090 C   0  0  0  0  0  0  0  0  0  0  0  0
   -7.1740   -3.4850   -0.8880 C   0  0  0  0  0  0  0  0  0  0  0  0
   -2.0650   -0.1120   -1.3850 S   0  0  0  0  0  0  0  0  0  0  0  0
   -1.7950    1.0230   -0.0450 C   0  0  0  0  0  0  0  0  0  0  0  0
   -0.5320    1.7490    0.1850 C   0  0  0  0  0  0  0  0  0  0  0  0
   -0.4270    2.6080    1.0820 O   0  0  0  0  0  0  0  0  0  0  0  0
    0.5920    1.4920   -0.6040 N   0  0  0  0  0  0  0  0  0  0  0  0
    0.6150    0.5310   -1.6580 C   0  0  0  0  0  0  0  0  0  0  0  0
    2.0060    0.4430   -2.3020 C   0  0  0  0  0  0  0  0  0  0  0  0
    3.0530    0.3480   -1.2430 C   0  0  0  0  0  0  0  0  0  0  0  0
    4.0890   -0.6830   -1.3740 C   0  0  2  0  0  0  0  0  0  0  0  0
    3.5430   -2.0680   -1.2040 C   0  0  0  0  0  0  0  0  0  0  0  0
    4.0290   -2.9800   -2.1470 O   0  0  0  0  0  0  0  0  0  0  0  0
    5.2300   -3.5100   -1.6310 C   0  0  0  0  0  0  0  0  0  0  0  0
    6.2660   -2.4060   -1.7400 C   0  0  0  0  0  0  0  0  0  0  0  0
    6.1490   -1.5450   -0.5010 C   0  0  0  0  0  0  0  0  0  0  0  0
    5.3030   -0.3900   -0.7020 N   0  0  0  0  0  0  0  0  0  0  0  0
    2.9870    1.2200   -0.2770 C   0  0  0  0  0  0  0  0  0  0  0  0
    3.8960    1.2990    0.8510 C   0  0  0  0  0  0  0  0  0  0  0  0
    4.1240    0.1880    1.6210 C   0  0  0  0  0  0  0  0  0  0  0  0
    5.0040    0.2520    2.7020 C   0  0  0  0  0  0  0  0  0  0  0  0
    5.6730    1.4310    3.0320 C   0  0  0  0  0  0  0  0  0  0  0  0
    5.4380    2.5440    2.2510 C   0  0  0  0  0  0  0  0  0  0  0  0
    4.5600    2.4690    1.1790 C   0  0  0  0  0  0  0  0  0  0  0  0
    6.2260    3.5400    2.8110 O   0  0  0  0  0  0  0  0  0  0  0  0
    6.5950    3.1700    4.1270 C   0  0  0  0  0  0  0  0  0  0  0  0
    6.5840    1.7530    4.0390 O   0  0  0  0  0  0  0  0  0  0  0  0
    1.8510    2.2210   -0.3810 C   0  0  0  0  0  0  0  0  0  0  0  0
   -2.9140    1.1310    0.6240 C   0  0  0  0  0  0  0  0  0  0  0  0
   -2.9550    1.9850    1.8980 C   0  0  0  0  0  0  0  0  0  0  0  0
  1  2  1  0
  2  3  1  0
  3  4  1  0
  4  5  1  0
  4  6  2  3
  6  7  1  0
  6 39  1  0
  7  8  2  3
  7 13  1  0
  8  9  1  0
  9 10  2  0
  9 11  1  0
 11 12  1  0
 13 14  1  0
 14 15  1  0
 14 39  2  0
 15 16  2  0
 15 17  1  0
 17 18  1  0
 17 38  1  0
 18 19  1  0
 19 20  1  0
 21 20  1  1
 20 28  2  0
 21 22  1  0
 21 27  1  0
 22 23  1  0
 23 24  1  0
 24 25  1  0
 25 26  1  0
 26 27  1  0
 28 29  1  0
 28 38  1  0
 29 30  2  0
 29 34  1  0
 30 31  1  0
 31 32  2  0
 32 33  1  0
 32 37  1  0
 33 34  2  0
 33 35  1  0
 35 36  1  0
 36 37  1  0
 39 40  1  0
M  END
