
     RDKit          3D

 41 45  0  0  0  0  0  0  0  0999 V2000
    0.4450   -3.6310   -2.4860 O   0  0  0  0  0  0  0  0  0  0  0  0
   -0.1380   -3.1320   -1.4380 C   0  0  0  0  0  0  0  0  0  0  0  0
    0.0280   -1.6750   -1.2120 C   0  0  0  0  0  0  0  0  0  0  0  0
    0.4640   -1.3390    0.1320 N   0  0  0  0  0  0  0  0  0  0  0  0
    1.7570   -1.8020    0.4950 C   0  0  0  0  0  0  0  0  0  0  0  0
    2.8640   -1.0540    0.4040 C   0  0  0  0  0  0  0  0  0  0  0  0
    2.8100    0.3130   -0.0830 C   0  0  0  0  0  0  0  0  0  0  0  0
    1.7070    0.8320   -0.4350 O   0  0  0  0  0  0  0  0  0  0  0  0
    4.0190    1.0720   -0.1630 N   0  0  0  0  0  0  0  0  0  0  0  0
    5.2870    0.3780   -0.3020 C   0  0  2  0  0  0  0  0  0  0  0  0
    5.3520   -0.7180    0.6730 C   0  0  0  0  0  0  0  0  0  0  0  0
    6.3950   -0.8950    1.4370 C   0  0  0  0  0  0  0  0  0  0  0  0
    7.5180   -0.0900    1.4190 O   0  0  0  0  0  0  0  0  0  0  0  0
    7.5280    0.9920    0.5210 C   0  0  0  0  0  0  0  0  0  0  0  0
    8.6270    1.8300    0.4640 C   0  0  0  0  0  0  0  0  0  0  0  0
    8.6850    2.9040   -0.3960 C   0  0  0  0  0  0  0  0  0  0  0  0
    7.5940    3.1240   -1.2150 C   0  0  0  0  0  0  0  0  0  0  0  0
    7.6430    4.1930   -2.0760 F   0  0  0  0  0  0  0  0  0  0  0  0
    6.4860    2.3300   -1.2000 C   0  0  0  0  0  0  0  0  0  0  0  0
    6.4650    1.2380   -0.3040 C   0  0  0  0  0  0  0  0  0  0  0  0
    4.1560   -1.6100    0.7990 C   0  0  0  0  0  0  0  0  0  0  0  0
    4.2680   -2.7620    1.2190 O   0  0  0  0  0  0  0  0  0  0  0  0
   -0.2830   -0.6060    1.1020 C   0  0  0  0  0  0  0  0  0  0  0  0
   -1.3590    0.2970    0.5380 C   0  0  0  0  0  0  0  0  0  0  0  0
   -2.6400   -0.4630    0.3180 C   0  0  0  0  0  0  0  0  0  0  0  0
   -3.8330    0.1270    0.9600 C   0  0  0  0  0  0  0  0  0  0  0  0
   -3.7470    1.5290    1.1440 O   0  0  0  0  0  0  0  0  0  0  0  0
   -4.5540    2.3810    0.3930 C   0  0  0  0  0  0  0  0  0  0  0  0
   -5.4350    1.8680   -0.5280 C   0  0  0  0  0  0  0  0  0  0  0  0
   -6.2240    2.7410   -1.2590 C   0  0  0  0  0  0  0  0  0  0  0  0
   -6.1170    4.0900   -1.0570 C   0  0  0  0  0  0  0  0  0  0  0  0
   -7.1430    5.2110   -2.0090 S   0  0  0  0  0  0  0  0  0  0  0  0
   -5.2180    4.5740   -0.1200 C   0  0  0  0  0  0  0  0  0  0  0  0
   -4.4110    3.7320    0.6310 C   0  0  0  0  0  0  0  0  0  0  0  0
   -4.9090   -0.5010    1.3530 C   0  0  0  0  0  0  0  0  0  0  0  0
   -5.2710   -1.8820    1.2980 C   0  0  0  0  0  0  0  0  0  0  0  0
   -4.9930   -2.8780    0.4730 C   0  0  0  0  0  0  0  0  0  0  0  0
   -4.2460   -2.9030   -0.6240 O   0  0  0  0  0  0  0  0  0  0  0  0
   -3.1850   -3.4590   -1.2600 C   0  0  0  0  0  0  0  0  0  0  0  0
   -2.2230   -4.1280   -0.3230 C   0  0  0  0  0  0  0  0  0  0  0  0
   -0.8430   -4.0530   -0.6710 N   0  0  0  0  0  0  0  0  0  0  0  0
  1  2  2  0
  2  3  1  0
  2 41  1  0
  3  4  1  0
  4  5  1  0
  4 23  1  0
  5  6  2  3
  6  7  1  0
  6 21  1  0
  7  8  2  0
  7  9  1  0
 10  9  1  1
 10 11  1  0
 10 20  1  0
 11 12  2  0
 11 21  1  0
 12 13  1  0
 13 14  1  0
 14 15  2  0
 14 20  1  0
 15 16  1  0
 16 17  2  0
 17 18  1  0
 17 19  1  0
 19 20  2  0
 21 22  2  0
 23 24  1  0
 24 25  1  0
 25 26  1  0
 26 27  1  0
 26 35  2  0
 27 28  1  0
 28 29  2  0
 28 34  1  0
 29 30  1  0
 30 31  2  0
 31 32  1  0
 31 33  1  0
 33 34  2  0
 35 36  1  0
 36 37  2  0
 37 38  1  0
 38 39  1  0
 39 40  1  0
 40 41  1  0
M  END
