
     RDKit          3D

 31 34  0  0  0  0  0  0  0  0999 V2000
    7.3810    2.1700    2.1900 C   0  0  0  0  0  0  0  0  0  0  0  0
    6.4500    2.1270    1.2590 C   0  0  0  0  0  0  0  0  0  0  0  0
    5.2910    3.0140    1.3150 C   0  0  0  0  0  0  0  0  0  0  0  0
    4.0330    2.3240    1.3850 N   0  0  0  0  0  0  0  0  0  0  0  0
    3.6640    1.4420    0.3350 C   0  0  0  0  0  0  0  0  0  0  0  0
    4.4780    1.3150   -0.6130 O   0  0  0  0  0  0  0  0  0  0  0  0
    2.3600    0.7030    0.3710 C   0  0  0  0  0  0  0  0  0  0  0  0
    2.2170   -0.1680   -0.8690 C   0  0  0  0  0  0  0  0  0  0  0  0
    0.9710   -0.8810   -0.8460 N   0  0  0  0  0  0  0  0  0  0  0  0
   -0.2280   -0.4710   -1.3550 C   0  0  0  0  0  0  0  0  0  0  0  0
   -0.4840    0.8220   -2.0500 C   0  0  0  0  0  0  0  0  0  0  0  0
   -1.1880   -1.4330   -1.1380 C   0  0  0  0  0  0  0  0  0  0  0  0
   -2.6050   -1.4240   -1.5030 C   0  0  0  0  0  0  0  0  0  0  0  0
   -3.1660   -0.4560   -2.1070 N   0  0  0  0  0  0  0  0  0  0  0  0
   -4.4970   -0.4490   -2.4510 N   0  0  0  0  0  0  0  0  0  0  0  0
   -5.3250    0.3370   -1.8710 C   0  0  0  0  0  0  0  0  0  0  0  0
   -6.6610    0.4200   -2.1380 N   0  0  0  0  0  0  0  0  0  0  0  0
   -7.2530    1.3050   -1.3950 N   0  0  0  0  0  0  0  0  0  0  0  0
   -6.3600    1.8910   -0.5640 C   0  0  0  0  0  0  0  0  0  0  0  0
   -6.4440    2.8370    0.3750 N   0  0  0  0  0  0  0  0  0  0  0  0
   -5.3210    3.1990    1.0390 C   0  0  0  0  0  0  0  0  0  0  0  0
   -4.1110    2.6320    0.7810 C   0  0  0  0  0  0  0  0  0  0  0  0
   -3.9780    1.6530   -0.1780 C   0  0  0  0  0  0  0  0  0  0  0  0
   -5.0820    1.2470   -0.8810 C   0  0  0  0  0  0  0  0  0  0  0  0
   -0.5280   -2.4670   -0.4680 C   0  0  0  0  0  0  0  0  0  0  0  0
   -0.9840   -3.6790   -0.0010 C   0  0  0  0  0  0  0  0  0  0  0  0
   -0.1320   -4.5660    0.6480 C   0  0  0  0  0  0  0  0  0  0  0  0
    1.1860   -4.2100    0.8170 C   0  0  0  0  0  0  0  0  0  0  0  0
    2.1530   -5.1330    1.5130 C   0  0  0  0  0  0  0  0  0  0  0  0
    1.6340   -2.9950    0.3460 C   0  0  0  0  0  0  0  0  0  0  0  0
    0.7850   -2.0990   -0.3060 C   0  0  0  0  0  0  0  0  0  0  0  0
  1  2  2  0
  2  3  1  0
  3  4  1  0
  4  5  1  0
  5  6  2  0
  5  7  1  0
  7  8  1  0
  8  9  1  0
  9 10  1  0
  9 31  1  0
 10 11  1  0
 10 12  2  0
 12 13  1  0
 12 25  1  0
 13 14  2  3
 14 15  1  0
 15 16  2  3
 16 17  1  0
 16 24  1  0
 17 18  1  0
 18 19  2  0
 19 20  1  0
 19 24  1  0
 20 21  1  0
 21 22  2  0
 22 23  1  0
 23 24  2  0
 25 26  2  0
 25 31  1  0
 26 27  1  0
 27 28  2  0
 28 29  1  0
 28 30  1  0
 30 31  2  0
M  END
