
     RDKit          3D

 29 32  0  0  0  0  0  0  0  0999 V2000
   -5.6700    1.0360   -1.6770 C   0  0  0  0  0  0  0  0  0  0  0  0
   -5.6150    0.1410   -0.4590 C   0  0  2  0  0  0  0  0  0  0  0  0
   -6.3500   -1.1460   -0.7320 C   0  0  0  0  0  0  0  0  0  0  0  0
   -6.2530    0.8490    0.7000 C   0  0  0  0  0  0  0  0  0  0  0  0
   -5.1330    1.2300    1.5310 N   0  0  0  0  0  0  0  0  0  0  0  0
   -5.1660    2.2000    2.6080 C   0  0  0  0  0  0  0  0  0  0  0  0
   -4.1240    2.4720    3.2530 O   0  0  0  0  0  0  0  0  0  0  0  0
   -3.9710    0.5330    1.1040 C   0  0  0  0  0  0  0  0  0  0  0  0
   -2.7080    0.4390    1.6480 C   0  0  0  0  0  0  0  0  0  0  0  0
   -1.7050   -0.2300    0.9770 C   0  0  0  0  0  0  0  0  0  0  0  0
   -1.9200   -0.8250   -0.2590 C   0  0  0  0  0  0  0  0  0  0  0  0
   -0.8070   -1.4640   -0.9010 O   0  0  0  0  0  0  0  0  0  0  0  0
    0.4240   -1.4060   -0.2220 C   0  0  0  0  0  0  0  0  0  0  0  0
    1.5200   -1.8130   -1.1650 C   0  0  0  0  0  0  0  0  0  0  0  0
    1.2160   -2.3130   -2.2620 O   0  0  0  0  0  0  0  0  0  0  0  0
    2.8390   -1.5620   -0.7680 N   0  0  0  0  0  0  0  0  0  0  0  0
    3.9910   -1.7330   -1.6040 C   0  0  0  0  0  0  0  0  0  0  0  0
    5.1630   -1.2380   -0.8110 C   0  0  0  0  0  0  0  0  0  0  0  0
    6.1850   -2.0010   -0.3880 C   0  0  0  0  0  0  0  0  0  0  0  0
    7.2570   -1.4650    0.3390 C   0  0  0  0  0  0  0  0  0  0  0  0
    7.2760   -0.1200    0.6390 C   0  0  0  0  0  0  0  0  0  0  0  0
    6.2090    0.6490    0.1920 C   0  0  0  0  0  0  0  0  0  0  0  0
    6.2070    1.9930    0.5720 C   0  0  0  0  0  0  0  0  0  0  0  0
    5.1340    2.7600    0.2090 C   0  0  0  0  0  0  0  0  0  0  0  0
    4.1090    2.1850   -0.5080 C   0  0  0  0  0  0  0  0  0  0  0  0
    4.1320    0.8780   -0.8680 N   0  0  0  0  0  0  0  0  0  0  0  0
    5.1760    0.1250   -0.5160 C   0  0  0  0  0  0  0  0  0  0  0  0
   -3.1660   -0.7450   -0.8010 C   0  0  0  0  0  0  0  0  0  0  0  0
   -4.1900   -0.0710   -0.1270 C   0  0  0  0  0  0  0  0  0  0  0  0
  2  1  1  6
  2  3  1  0
  2  4  1  0
  2 29  1  0
  4  5  1  0
  5  6  1  0
  5  8  1  0
  6  7  2  0
  8  9  2  0
  8 29  1  0
  9 10  1  0
 10 11  2  0
 11 12  1  0
 11 28  1  0
 12 13  1  0
 13 14  1  0
 14 15  2  0
 14 16  1  0
 16 17  1  0
 17 18  1  0
 18 19  2  0
 18 27  1  0
 19 20  1  0
 20 21  2  0
 21 22  1  0
 22 23  2  0
 22 27  1  0
 23 24  1  0
 24 25  2  0
 25 26  1  0
 26 27  2  0
 28 29  2  0
M  CHG  1  26   1
M  END
