
     RDKit          3D

 30 34  0  0  0  0  0  0  0  0999 V2000
   -5.5540   -1.4420   -0.4730 C   0  0  0  0  0  0  0  0  0  0  0  0
   -4.1620   -1.0960    0.0250 C   0  0  2  0  0  0  0  0  0  0  0  0
   -3.9740   -1.8110    1.3480 C   0  0  0  0  0  0  0  0  0  0  0  0
   -4.0980    0.4030    0.1790 C   0  0  0  0  0  0  0  0  0  0  0  0
   -2.7690    0.9530   -0.1590 C   0  0  0  0  0  0  0  0  0  0  0  0
   -2.6500    2.1920   -0.3080 O   0  0  0  0  0  0  0  0  0  0  0  0
   -1.5890    0.1280   -0.3280 C   0  0  0  0  0  0  0  0  0  0  0  0
   -1.7870   -1.1870   -0.7340 C   0  0  0  0  0  0  0  0  0  0  0  0
   -0.7190   -1.9730   -0.8950 N   0  0  0  0  0  0  0  0  0  0  0  0
    0.5300   -1.5260   -0.6740 C   0  0  0  0  0  0  0  0  0  0  0  0
    1.7660   -2.0690   -0.7510 N   0  0  0  0  0  0  0  0  0  0  0  0
    2.6990   -1.1920   -0.4240 N   0  0  0  0  0  0  0  0  0  0  0  0
    4.0960   -1.4430   -0.4020 C   0  0  0  0  0  0  0  0  0  0  0  0
    4.8920   -1.0960    0.6680 C   0  0  0  0  0  0  0  0  0  0  0  0
    6.2500   -1.3410    0.6850 C   0  0  0  0  0  0  0  0  0  0  0  0
    6.8680   -1.9440   -0.3660 C   0  0  0  0  0  0  0  0  0  0  0  0
    6.1050   -2.3070   -1.4580 C   0  0  0  0  0  0  0  0  0  0  0  0
    4.7490   -2.0600   -1.4720 C   0  0  0  0  0  0  0  0  0  0  0  0
    2.0860   -0.0130   -0.1140 C   0  0  0  0  0  0  0  0  0  0  0  0
    2.6630    1.1810    0.2820 O   0  0  0  0  0  0  0  0  0  0  0  0
    0.7420   -0.2140   -0.2680 C   0  0  0  0  0  0  0  0  0  0  0  0
   -0.3260    0.6240   -0.0920 C   0  0  0  0  0  0  0  0  0  0  0  0
   -0.1820    2.0000    0.3250 C   0  0  0  0  0  0  0  0  0  0  0  0
   -0.0300    2.9510   -0.6720 C   0  0  0  0  0  0  0  0  0  0  0  0
    0.1160    4.2900   -0.3660 C   0  0  0  0  0  0  0  0  0  0  0  0
    0.1100    4.6780    0.9550 C   0  0  0  0  0  0  0  0  0  0  0  0
   -0.0410    3.7340    1.9280 C   0  0  0  0  0  0  0  0  0  0  0  0
   -0.1850    2.4160    1.6240 C   0  0  0  0  0  0  0  0  0  0  0  0
   -0.3800    1.1960    2.8820 Cl  0  0  0  0  0  0  0  0  0  0  0  0
   -3.1800   -1.6310   -0.9660 C   0  0  0  0  0  0  0  0  0  0  0  0
  2  1  1  6
  2  3  1  0
  2  4  1  0
  2 30  1  0
  4  5  1  0
  5  6  2  0
  5  7  1  0
  7  8  1  0
  7 22  2  0
  8  9  2  0
  8 30  1  0
  9 10  1  0
 10 11  2  0
 10 21  1  0
 11 12  1  0
 12 13  1  0
 12 19  1  0
 13 14  2  0
 13 18  1  0
 14 15  1  0
 15 16  2  0
 16 17  1  0
 17 18  2  0
 19 20  1  0
 19 21  2  0
 21 22  1  0
 22 23  1  0
 23 24  2  0
 23 28  1  0
 24 25  1  0
 25 26  2  0
 26 27  1  0
 27 28  2  0
 28 29  1  0
M  END
