
     RDKit          3D

 31 34  0  0  0  0  0  0  0  0999 V2000
   -9.7600    0.4180   -0.3890 C   0  0  0  0  0  0  0  0  0  0  0  0
   -8.2670    0.3830   -0.5400 C   0  0  0  0  0  0  0  0  0  0  0  0
   -7.4990   -0.2430    0.3290 C   0  0  0  0  0  0  0  0  0  0  0  0
   -6.0370   -0.3040    0.2220 C   0  0  0  0  0  0  0  0  0  0  0  0
   -5.2990   -0.9210    1.0820 N   0  0  0  0  0  0  0  0  0  0  0  0
   -3.9100   -0.9680    0.9630 N   0  0  0  0  0  0  0  0  0  0  0  0
   -3.1340   -1.6810    1.9690 C   0  0  0  0  0  0  0  0  0  0  0  0
   -3.2760   -0.3220   -0.1320 C   0  0  0  0  0  0  0  0  0  0  0  0
   -1.8170   -0.3440   -0.3000 C   0  0  0  0  0  0  0  0  0  0  0  0
   -1.1630   -0.9810    0.5950 O   0  0  0  0  0  0  0  0  0  0  0  0
   -1.1540    0.2910   -1.3760 N   0  0  0  0  0  0  0  0  0  0  0  0
    0.2840    0.2270   -1.4690 C   0  0  0  0  0  0  0  0  0  0  0  0
    0.9080    0.8670   -0.2820 C   0  0  0  0  0  0  0  0  0  0  0  0
    2.3890    0.8410   -0.3100 C   0  0  0  0  0  0  0  0  0  0  0  0
    3.1480    1.6790   -1.0950 C   0  0  0  0  0  0  0  0  0  0  0  0
    2.6760    2.7490   -2.0410 C   0  0  0  0  0  0  0  0  0  0  0  0
    4.4480    1.3480   -0.8420 N   0  0  0  0  0  0  0  0  0  0  0  0
    4.4800    0.3740    0.0360 N   0  0  0  0  0  0  0  0  0  0  0  0
    5.6740   -0.2300    0.5380 C   0  0  0  0  0  0  0  0  0  0  0  0
    6.2470   -1.3460    0.1120 C   0  0  0  0  0  0  0  0  0  0  0  0
    5.7280   -2.1890   -0.9970 C   0  0  0  0  0  0  0  0  0  0  0  0
    7.4570   -1.6320    0.8850 C   0  0  0  0  0  0  0  0  0  0  0  0
    7.5390   -0.5260    1.8460 C   0  0  0  0  0  0  0  0  0  0  0  0
    6.5120    0.2650    1.6320 C   0  0  0  0  0  0  0  0  0  0  0  0
    6.2220    1.4480    2.3470 N   0  0  0  0  0  0  0  0  0  0  0  0
    3.2360    0.0190    0.4010 C   0  0  0  0  0  0  0  0  0  0  0  0
    2.8470   -1.0540    1.3830 C   0  0  0  0  0  0  0  0  0  0  0  0
   -4.0290    0.3200   -1.0280 C   0  0  0  0  0  0  0  0  0  0  0  0
   -5.4560    0.3610   -0.8940 N   0  0  0  0  0  0  0  0  0  0  0  0
   -6.2830    1.0310   -1.8240 C   0  0  0  0  0  0  0  0  0  0  0  0
   -7.6140    1.0500   -1.6690 C   0  0  0  0  0  0  0  0  0  0  0  0
  1  2  1  0
  2  3  2  0
  2 31  1  0
  3  4  1  0
  4  5  2  0
  4 29  1  0
  5  6  1  0
  6  7  1  0
  6  8  1  0
  8  9  1  0
  8 28  2  0
  9 10  2  0
  9 11  1  0
 11 12  1  0
 12 13  1  0
 13 14  1  0
 14 15  1  0
 14 26  2  0
 15 16  1  0
 15 17  2  0
 17 18  1  0
 18 19  1  0
 18 26  1  0
 19 20  2  0
 19 24  1  0
 20 21  1  0
 20 22  1  0
 22 23  1  0
 23 24  2  0
 24 25  1  0
 26 27  1  0
 28 29  1  0
 29 30  1  0
 30 31  2  0
M  END
