
     RDKit          3D

 29 32  0  0  0  0  0  0  0  0999 V2000
    0.2860   -4.6450   -0.4100 C   0  0  0  0  0  0  0  0  0  0  0  0
    0.0310   -3.3240    0.0220 O   0  0  0  0  0  0  0  0  0  0  0  0
   -1.2070   -2.7520   -0.3070 C   0  0  0  0  0  0  0  0  0  0  0  0
   -2.1420   -3.4590   -1.0290 C   0  0  0  0  0  0  0  0  0  0  0  0
   -3.3480   -2.8850   -1.3440 C   0  0  0  0  0  0  0  0  0  0  0  0
   -3.6760   -1.5910   -0.9580 C   0  0  0  0  0  0  0  0  0  0  0  0
   -2.7660   -0.8560   -0.2320 C   0  0  0  0  0  0  0  0  0  0  0  0
   -2.9440    0.4630    0.1990 N   0  0  0  0  0  0  0  0  0  0  0  0
   -4.0960    1.1980    0.4830 C   0  0  0  0  0  0  0  0  0  0  0  0
   -5.3650    0.6950    0.3910 C   0  0  0  0  0  0  0  0  0  0  0  0
   -6.5110    1.4780    0.6170 C   0  0  0  0  0  0  0  0  0  0  0  0
   -6.2990    2.7960    0.9430 C   0  0  0  0  0  0  0  0  0  0  0  0
   -5.0220    3.3060    1.0390 C   0  0  0  0  0  0  0  0  0  0  0  0
   -3.9680    2.5280    0.8160 N   0  0  0  0  0  0  0  0  0  0  0  0
   -1.5330   -1.4760    0.0720 C   0  0  0  0  0  0  0  0  0  0  0  0
   -0.5680   -0.7960    0.7960 O   0  0  0  0  0  0  0  0  0  0  0  0
    0.4890   -0.1260    0.0470 C   0  0  0  0  0  0  0  0  0  0  0  0
    1.3490    0.5310    1.0360 C   0  0  0  0  0  0  0  0  0  0  0  0
    0.8260    0.6760    2.2160 O   0  0  0  0  0  0  0  0  0  0  0  0
    2.6330    1.0010    0.8740 N   0  0  0  0  0  0  0  0  0  0  0  0
    3.3690    1.5360    2.0670 C   0  0  0  0  0  0  0  0  0  0  0  0
    4.6380    0.6800    2.1480 C   0  0  0  0  0  0  0  0  0  0  0  0
    5.5040    0.8720    0.9530 C   0  0  0  0  0  0  0  0  0  0  0  0
    4.7540    0.8930   -0.3020 C   0  0  0  0  0  0  0  0  0  0  0  0
    5.4550    0.8570   -1.5180 C   0  0  0  0  0  0  0  0  0  0  0  0
    4.8200    0.9100   -2.7370 C   0  0  0  0  0  0  0  0  0  0  0  0
    3.4480    1.0010   -2.7420 C   0  0  0  0  0  0  0  0  0  0  0  0
    2.7600    1.0370   -1.5550 C   0  0  0  0  0  0  0  0  0  0  0  0
    3.3860    0.9820   -0.3290 C   0  0  0  0  0  0  0  0  0  0  0  0
  1  2  1  0
  2  3  1  0
  3  4  2  0
  3 15  1  0
  4  5  1  0
  5  6  2  0
  6  7  1  0
  7  8  1  0
  7 15  2  0
  8  9  1  0
  9 10  2  0
  9 14  1  0
 10 11  1  0
 11 12  2  0
 12 13  1  0
 13 14  2  0
 15 16  1  0
 16 17  1  0
 17 18  1  0
 18 19  2  0
 18 20  1  0
 20 21  1  0
 20 29  1  0
 21 22  1  0
 22 23  1  0
 23 24  1  0
 24 25  2  0
 24 29  1  0
 25 26  1  0
 26 27  2  0
 27 28  1  0
 28 29  2  0
M  CHG  1  14   1
M  END
