
     RDKit          3D

 29 32  0  0  0  0  0  0  0  0999 V2000
    8.5100    2.1270    0.1830 C   0  0  0  0  0  0  0  0  0  0  0  0
    7.4060    1.1150    0.0240 C   0  0  0  0  0  0  0  0  0  0  0  0
    6.1130    1.4830    0.1080 C   0  0  0  0  0  0  0  0  0  0  0  0
    5.0500    0.5530   -0.0370 C   0  0  0  0  0  0  0  0  0  0  0  0
    3.7020    1.0130   -0.0350 C   0  0  0  0  0  0  0  0  0  0  0  0
    2.5790    0.5070    0.2100 C   0  0  0  0  0  0  0  0  0  0  0  0
    2.1030   -0.7800    0.6210 C   0  0  0  0  0  0  0  0  0  0  0  0
    2.9440   -1.7280    1.0430 N   0  0  0  0  0  0  0  0  0  0  0  0
    2.5750   -2.9520    1.4300 C   0  0  0  0  0  0  0  0  0  0  0  0
    1.2400   -3.2600    1.3940 C   0  0  0  0  0  0  0  0  0  0  0  0
    0.3050   -2.3310    0.9680 C   0  0  0  0  0  0  0  0  0  0  0  0
    0.7100   -1.0920    0.5790 C   0  0  0  0  0  0  0  0  0  0  0  0
   -0.1890   -0.0260    0.1110 C   0  0  0  0  0  0  0  0  0  0  0  0
   -1.5840   -0.3850    0.0780 N   0  0  0  0  0  0  0  0  0  0  0  0
   -2.5720    0.5560   -0.3570 C   0  0  0  0  0  0  0  0  0  0  0  0
   -2.1370    1.6890   -0.6990 O   0  0  0  0  0  0  0  0  0  0  0  0
   -3.9810    0.2240   -0.4010 C   0  0  0  0  0  0  0  0  0  0  0  0
   -4.5180   -0.9720   -0.0310 C   0  0  0  0  0  0  0  0  0  0  0  0
   -5.8860   -1.2160   -0.1020 C   0  0  0  0  0  0  0  0  0  0  0  0
   -6.7630   -0.2490   -0.5550 C   0  0  0  0  0  0  0  0  0  0  0  0
   -6.2440    0.9510   -0.9290 C   0  0  0  0  0  0  0  0  0  0  0  0
   -4.8880    1.1880   -0.8560 C   0  0  0  0  0  0  0  0  0  0  0  0
   -7.1340    1.9290   -1.3870 O   0  0  0  0  0  0  0  0  0  0  0  0
   -8.4760    1.9680   -0.9620 C   0  0  0  0  0  0  0  0  0  0  0  0
   -8.9600    0.6920   -0.3370 C   0  0  0  0  0  0  0  0  0  0  0  0
   -8.1330   -0.4260   -0.6500 O   0  0  0  0  0  0  0  0  0  0  0  0
    5.4390   -0.7410   -0.2720 C   0  0  0  0  0  0  0  0  0  0  0  0
    6.7940   -1.0990   -0.3540 C   0  0  0  0  0  0  0  0  0  0  0  0
    7.7280   -0.1630   -0.2040 N   0  0  0  0  0  0  0  0  0  0  0  0
  1  2  1  0
  2  3  2  0
  2 29  1  0
  3  4  1  0
  4  5  1  0
  4 27  2  0
  5  6  2  3
  6  7  1  0
  7  8  2  0
  7 12  1  0
  8  9  1  0
  9 10  2  0
 10 11  1  0
 11 12  2  0
 12 13  1  0
 13 14  1  0
 14 15  1  0
 15 16  2  0
 15 17  1  0
 17 18  2  0
 17 22  1  0
 18 19  1  0
 19 20  2  0
 20 21  1  0
 20 26  1  0
 21 22  2  0
 21 23  1  0
 23 24  1  0
 24 25  1  0
 25 26  1  0
 27 28  1  0
 28 29  2  0
M  CHG  1  29   1
M  END
