
     RDKit          3D

 31 34  0  0  0  0  0  0  0  0999 V2000
   -3.5530   -4.8790   -0.7820 C   0  0  0  0  0  0  0  0  0  0  0  0
   -2.9170   -3.5350   -0.5670 C   0  0  0  0  0  0  0  0  0  0  0  0
   -3.5290   -2.7320    0.4180 N   0  0  0  0  0  0  0  0  0  0  0  0
   -4.8230   -2.2250    0.1710 C   0  0  0  0  0  0  0  0  0  0  0  0
   -4.7240   -1.0740   -0.6940 N   0  0  0  0  0  0  0  0  0  0  0  0
   -3.6990   -0.1810   -0.4880 N   0  0  0  0  0  0  0  0  0  0  0  0
   -2.7040   -0.4150    0.2710 C   0  0  0  0  0  0  0  0  0  0  0  0
   -1.5860    0.4480    0.5540 C   0  0  0  0  0  0  0  0  0  0  0  0
   -1.3300    1.6270    0.1100 C   0  0  0  0  0  0  0  0  0  0  0  0
   -1.8950    2.6020   -0.7630 C   0  0  0  0  0  0  0  0  0  0  0  0
   -1.3000    3.8050   -0.9950 C   0  0  0  0  0  0  0  0  0  0  0  0
   -0.0270    4.2970   -0.4180 C   0  0  0  0  0  0  0  0  0  0  0  0
   -2.1170    4.5860   -1.9350 C   0  0  0  0  0  0  0  0  0  0  0  0
   -3.2060    3.7540   -2.2190 N   0  0  0  0  0  0  0  0  0  0  0  0
   -3.0780    2.6300   -1.5530 C   0  0  0  0  0  0  0  0  0  0  0  0
   -0.6080   -0.1420    1.5050 N   0  0  0  0  0  0  0  0  0  0  0  0
    0.7590    0.1830    1.4390 C   0  0  0  0  0  0  0  0  0  0  0  0
    1.4270    1.1460    2.1530 C   0  0  0  0  0  0  0  0  0  0  0  0
    0.8230    2.0490    3.1920 C   0  0  0  0  0  0  0  0  0  0  0  0
    2.7220    1.1320    1.7710 N   0  0  0  0  0  0  0  0  0  0  0  0
    2.8980    0.2030    0.8470 N   0  0  0  0  0  0  0  0  0  0  0  0
    4.1640   -0.0540    0.2460 C   0  0  0  0  0  0  0  0  0  0  0  0
    5.3110   -0.1400    1.0260 C   0  0  0  0  0  0  0  0  0  0  0  0
    6.5540   -0.3850    0.4860 C   0  0  0  0  0  0  0  0  0  0  0  0
    6.6970   -0.5550   -0.8770 C   0  0  0  0  0  0  0  0  0  0  0  0
    7.9510   -0.8040   -1.4420 O   0  0  0  0  0  0  0  0  0  0  0  0
    5.5420   -0.4650   -1.6310 C   0  0  0  0  0  0  0  0  0  0  0  0
    4.2990   -0.2230   -1.1130 C   0  0  0  0  0  0  0  0  0  0  0  0
    1.7380   -0.3910    0.6210 C   0  0  0  0  0  0  0  0  0  0  0  0
    1.4450   -1.4970   -0.3340 C   0  0  0  0  0  0  0  0  0  0  0  0
   -2.6550   -1.7750    0.9810 C   0  0  0  0  0  0  0  0  0  0  0  0
  1  2  1  0
  2  3  1  0
  3  4  1  0
  3 31  1  0
  4  5  1  0
  5  6  1  0
  6  7  2  0
  7  8  1  0
  7 31  1  0
  8  9  2  3
  8 16  1  0
  9 10  1  0
 10 11  2  0
 10 15  1  0
 11 12  1  0
 11 13  1  0
 13 14  1  0
 14 15  2  0
 16 17  1  0
 17 18  1  0
 17 29  2  0
 18 19  1  0
 18 20  2  0
 20 21  1  0
 21 22  1  0
 21 29  1  0
 22 23  2  0
 22 28  1  0
 23 24  1  0
 24 25  2  0
 25 26  1  0
 25 27  1  0
 27 28  2  0
 29 30  1  0
M  END
