
     RDKit          3D

 22 22  0  0  0  0  0  0  0  0999 V2000
   -2.2280   -1.7890   -0.7370 C   0  0  0  0  0  0  0  0  0  0  0  0
   -1.8200   -0.8980    0.3650 C   0  0  2  0  0  0  0  0  0  0  0  0
   -2.8510   -1.0650    1.3710 O   0  0  0  0  0  0  0  0  0  0  0  0
   -2.0240    0.5510   -0.0430 C   0  0  0  0  0  0  0  0  0  0  0  0
   -3.4680    0.8370   -0.3180 C   0  0  0  0  0  0  0  0  0  0  0  0
   -3.6880    2.1860   -0.6930 O   0  0  0  0  0  0  0  0  0  0  0  0
   -3.1480    2.8040   -1.7840 C   0  0  0  0  0  0  0  0  0  0  0  0
   -2.3960    2.1740   -2.5380 O   0  0  0  0  0  0  0  0  0  0  0  0
   -3.4650    4.1450   -2.0160 O   0  0  0  0  0  0  0  0  0  0  0  0
   -0.5700   -1.1610    1.0840 C   0  0  1  0  0  0  0  0  0  0  0  0
   -0.5720   -2.4430    1.6680 O   0  0  0  0  0  0  0  0  0  0  0  0
   -0.0690   -3.4520    0.9180 C   0  0  0  0  0  0  0  0  0  0  0  0
    1.0960   -3.1570    0.0370 C   0  0  0  0  0  0  0  0  0  0  0  0
    0.9750   -1.9210   -0.5880 O   0  0  0  0  0  0  0  0  0  0  0  0
    0.7380   -0.9990    0.4380 C   0  0  1  0  0  0  0  0  0  0  0  0
    1.2240    0.3760    0.1400 C   0  0  0  0  0  0  0  0  0  0  0  0
    2.6370    0.3870   -0.0420 O   0  0  0  0  0  0  0  0  0  0  0  0
    3.0960    1.6480   -0.3220 C   0  0  2  0  0  0  0  0  0  0  0  0
    3.7250    1.7400   -1.5820 O   0  0  0  0  0  0  0  0  0  0  0  0
    4.1110    2.1450    0.6870 C   0  0  1  0  0  0  0  0  0  0  0  0
    3.4700    2.1560    1.9390 O   0  0  0  0  0  0  0  0  0  0  0  0
    5.2480    1.3630    0.7340 O   0  0  0  0  0  0  0  0  0  0  0  0
  2  1  1  6
  2  3  1  0
  2  4  1  0
  2 10  1  0
  4  5  1  0
  5  6  1  0
  6  7  1  0
  7  8  2  0
  7  9  1  0
 10 11  1  6
 10 15  1  0
 11 12  1  0
 12 13  1  0
 13 14  1  0
 14 15  1  0
 15 16  1  6
 16 17  1  0
 17 18  1  0
 18 19  1  6
 18 20  1  0
 20 21  1  1
 20 22  1  0
M  END
