
     RDKit          3D

 22 22  0  0  0  0  0  0  0  0999 V2000
   -0.5490    3.7120   -0.3170 O   0  0  0  0  0  0  0  0  0  0  0  0
   -0.6110    2.3250   -0.3000 C   0  0  1  0  0  0  0  0  0  0  0  0
    0.4820    1.8720    0.4380 O   0  0  0  0  0  0  0  0  0  0  0  0
    1.5690    2.6820    0.1360 C   0  0  0  0  0  0  0  0  0  0  0  0
    2.8120    2.1420    0.8120 C   0  0  0  0  0  0  0  0  0  0  0  0
    3.4290    1.0080    0.0350 C   0  0  0  0  0  0  0  0  0  0  0  0
    2.6770   -0.1720    0.1320 O   0  0  0  0  0  0  0  0  0  0  0  0
    3.5790   -1.2220    0.0840 C   0  0  0  0  0  0  0  0  0  0  0  0
    2.9330   -2.5720    0.2160 C   0  0  0  0  0  0  0  0  0  0  0  0
    1.9070   -2.7790   -0.6920 O   0  0  0  0  0  0  0  0  0  0  0  0
    0.7120   -2.8030    0.0550 C   0  0  0  0  0  0  0  0  0  0  0  0
   -0.5030   -2.9080   -0.8070 C   0  0  0  0  0  0  0  0  0  0  0  0
   -1.2470   -1.7370   -0.8680 O   0  0  0  0  0  0  0  0  0  0  0  0
   -1.8780   -1.5470    0.3530 C   0  0  2  0  0  0  0  0  0  0  0  0
   -2.5010   -2.7230    0.8050 O   0  0  0  0  0  0  0  0  0  0  0  0
   -2.9280   -0.4730    0.3210 C   0  0  2  0  0  0  0  0  0  0  0  0
   -3.0990   -0.0270    1.6470 O   0  0  0  0  0  0  0  0  0  0  0  0
   -4.1750   -0.9660   -0.0790 O   0  0  0  0  0  0  0  0  0  0  0  0
   -2.5240    0.7290   -0.4910 C   0  0  1  0  0  0  0  0  0  0  0  0
   -3.6940    1.2600   -1.0460 O   0  0  0  0  0  0  0  0  0  0  0  0
   -1.8640    1.8010    0.3540 C   0  0  2  0  0  0  0  0  0  0  0  0
   -2.7100    2.8660    0.6160 O   0  0  0  0  0  0  0  0  0  0  0  0
  2  1  1  1
  2  3  1  0
  2 21  1  0
  3  4  1  0
  4  5  1  0
  5  6  1  0
  6  7  1  0
  7  8  1  0
  8  9  1  0
  9 10  1  0
 10 11  1  0
 11 12  1  0
 12 13  1  0
 13 14  1  0
 14 15  1  6
 14 16  1  0
 16 17  1  1
 16 18  1  0
 16 19  1  0
 19 20  1  1
 19 21  1  0
 21 22  1  6
M  END
