
     RDKit          3D

 22 22  0  0  0  0  0  0  0  0999 V2000
   -3.3290    1.9520   -2.3000 C   0  0  0  0  0  0  0  0  0  0  0  0
   -2.9050    1.1540   -1.2080 O   0  0  0  0  0  0  0  0  0  0  0  0
   -2.1560   -0.0090   -1.3700 C   0  0  0  0  0  0  0  0  0  0  0  0
   -1.8700   -0.3180   -2.5630 O   0  0  0  0  0  0  0  0  0  0  0  0
   -1.7220   -0.8350   -0.2040 C   0  0  2  0  0  0  0  0  0  0  0  0
   -2.9440   -1.2880    0.5140 C   0  0  2  0  0  0  0  0  0  0  0  0
   -2.7120   -2.0670    1.6230 O   0  0  0  0  0  0  0  0  0  0  0  0
   -3.7570   -2.1390   -0.4650 C   0  0  0  0  0  0  0  0  0  0  0  0
   -4.9680   -2.5380    0.0920 O   0  0  0  0  0  0  0  0  0  0  0  0
   -0.7560   -0.0380    0.5910 C   0  0  2  0  0  0  0  0  0  0  0  0
   -1.3090    1.1440    1.0640 O   0  0  0  0  0  0  0  0  0  0  0  0
    0.4020    0.3440   -0.3080 C   0  0  0  0  0  0  0  0  0  0  0  0
    1.5880    0.0570    0.6100 C   0  0  1  0  0  0  0  0  0  0  0  0
    2.4820    1.0930    0.4520 O   0  0  0  0  0  0  0  0  0  0  0  0
    3.7390    0.6570    0.0370 C   0  0  2  0  0  0  0  0  0  0  0  0
    4.7420    1.1440    1.0720 C   0  0  0  0  0  0  0  0  0  0  0  0
    4.6490    2.5450    1.0890 O   0  0  0  0  0  0  0  0  0  0  0  0
    4.0370    1.3050   -1.1580 O   0  0  0  0  0  0  0  0  0  0  0  0
    4.3090    0.3870   -2.1760 C   0  0  0  0  0  0  0  0  0  0  0  0
    1.0540    0.0800    1.9100 O   0  0  0  0  0  0  0  0  0  0  0  0
   -0.0870   -0.7370    1.7150 C   0  0  1  0  0  0  0  0  0  0  0  0
   -0.8040   -0.7050    2.8850 O   0  0  0  0  0  0  0  0  0  0  0  0
  1  2  1  0
  2  3  1  0
  3  4  2  0
  5  3  1  6
  5  6  1  0
  5 10  1  0
  6  7  1  1
  6  8  1  0
  8  9  1  0
 10 11  1  1
 10 12  1  0
 10 21  1  0
 12 13  1  0
 13 14  1  1
 13 20  1  0
 14 15  1  0
 15 16  1  1
 15 18  1  0
 16 17  1  0
 18 19  1  0
 20 21  1  0
 21 22  1  1
M  END
