
     RDKit          3D

 22 22  0  0  0  0  0  0  0  0999 V2000
    1.1270   -2.4760    1.0440 O   0  0  0  0  0  0  0  0  0  0  0  0
    0.5160   -2.0010   -0.0520 C   0  0  0  0  0  0  0  0  0  0  0  0
    0.5010   -0.5160   -0.3090 C   0  0  2  0  0  0  0  0  0  0  0  0
   -0.3250   -0.6530   -1.7050 C   0  0  0  0  0  0  0  0  0  0  0  0
    0.5110   -1.4630   -2.5220 O   0  0  0  0  0  0  0  0  0  0  0  0
    1.7450    0.0540   -0.8840 C   0  0  0  0  0  0  0  0  0  0  0  0
    3.0630   -0.0500   -0.3090 C   0  0  1  0  0  0  0  0  0  0  0  0
    3.9720    0.6490   -1.1940 O   0  0  0  0  0  0  0  0  0  0  0  0
    3.3270    0.6240    0.9980 C   0  0  1  0  0  0  0  0  0  0  0  0
    4.7260    0.4840    1.2670 O   0  0  0  0  0  0  0  0  0  0  0  0
    3.0480    1.9680    1.0300 O   0  0  0  0  0  0  0  0  0  0  0  0
   -0.3130    0.3390    0.5520 C   0  0  2  0  0  0  0  0  0  0  0  0
   -0.1400    1.7050    0.1660 O   0  0  0  0  0  0  0  0  0  0  0  0
    0.0270    0.3610    2.0220 C   0  0  0  0  0  0  0  0  0  0  0  0
   -0.0820   -0.8870    2.5790 O   0  0  0  0  0  0  0  0  0  0  0  0
   -1.8240    0.2040    0.4890 C   0  0  2  0  0  0  0  0  0  0  0  0
   -2.3020   -1.0790    0.6800 O   0  0  0  0  0  0  0  0  0  0  0  0
   -3.7030   -0.9770    0.5480 C   0  0  0  0  0  0  0  0  0  0  0  0
   -4.0780   -0.6860   -0.7320 O   0  0  0  0  0  0  0  0  0  0  0  0
   -3.5580    0.4350   -1.2850 C   0  0  0  0  0  0  0  0  0  0  0  0
   -2.5770    1.1240   -0.3730 C   0  0  2  0  0  0  0  0  0  0  0  0
   -1.8360    2.0980   -1.0430 O   0  0  0  0  0  0  0  0  0  0  0  0
  1  2  1  0
  3  2  1  1
  3  4  1  0
  3  6  1  0
  3 12  1  0
  4  5  1  0
  6  7  1  0
  7  8  1  6
  7  9  1  0
  9 10  1  6
  9 11  1  0
 12 13  1  6
 12 14  1  0
 12 16  1  0
 14 15  1  0
 16 17  1  6
 16 21  1  0
 17 18  1  0
 18 19  1  0
 19 20  1  0
 20 21  1  0
 21 22  1  6
M  END
