
     RDKit          3D

 22 22  0  0  0  0  0  0  0  0999 V2000
   -0.7020    2.7570   -0.1030 C   0  0  0  0  0  0  0  0  0  0  0  0
   -0.0790    1.4100    0.1630 C   0  0  2  0  0  0  0  0  0  0  0  0
    0.8630    1.6670    1.1900 O   0  0  0  0  0  0  0  0  0  0  0  0
    0.5870    0.9210   -0.9060 O   0  0  0  0  0  0  0  0  0  0  0  0
    1.5520   -0.0490   -0.3570 C   0  0  2  0  0  0  0  0  0  0  0  0
    2.4070   -0.2550   -1.4260 O   0  0  0  0  0  0  0  0  0  0  0  0
    3.6100    0.3320   -1.3580 C   0  0  0  0  0  0  0  0  0  0  0  0
    4.4660   -0.0670   -0.2500 C   0  0  0  0  0  0  0  0  0  0  0  0
    4.1370   -0.9140    0.5830 O   0  0  0  0  0  0  0  0  0  0  0  0
    5.7500    0.5140   -0.0760 O   0  0  0  0  0  0  0  0  0  0  0  0
    0.6700   -1.2170   -0.0990 C   0  0  1  0  0  0  0  0  0  0  0  0
    0.3440   -1.6940   -1.4060 O   0  0  0  0  0  0  0  0  0  0  0  0
    1.3800   -2.4300    0.5150 C   0  0  0  0  0  0  0  0  0  0  0  0
    1.7480   -2.2370    1.8210 O   0  0  0  0  0  0  0  0  0  0  0  0
   -0.5640   -0.9700    0.7030 C   0  0  0  0  0  0  0  0  0  0  0  0
   -1.1030    0.4180    0.7270 C   0  0  1  0  0  0  0  0  0  0  0  0
   -1.2790    0.8200    2.0460 O   0  0  0  0  0  0  0  0  0  0  0  0
   -2.4250    0.5380    0.0420 C   0  0  1  0  0  0  0  0  0  0  0  0
   -2.4350    0.2420   -1.4220 C   0  0  0  0  0  0  0  0  0  0  0  0
   -3.7750    0.4230   -1.8470 O   0  0  0  0  0  0  0  0  0  0  0  0
   -3.5740   -0.1450    0.7040 C   0  0  0  0  0  0  0  0  0  0  0  0
   -3.4860   -1.4950    0.8740 O   0  0  0  0  0  0  0  0  0  0  0  0
  2  1  1  6
  2  3  1  0
  2  4  1  0
  2 16  1  0
  4  5  1  0
  5  6  1  6
  5 11  1  0
  6  7  1  0
  7  8  1  0
  8  9  2  0
  8 10  1  0
 11 12  1  6
 11 13  1  0
 11 15  1  0
 13 14  1  0
 15 16  1  0
 16 17  1  1
 16 18  1  0
 18 19  1  6
 18 21  1  0
 19 20  1  0
 21 22  1  0
M  END
