
     RDKit          3D

 24 26  0  0  0  0  0  0  0  0999 V2000
    3.0660   -3.0940    1.3770 C   0  0  0  0  0  0  0  0  0  0  0  0
    2.1950   -2.3050    0.7420 C   0  0  0  0  0  0  0  0  0  0  0  0
    0.8170   -2.7630    0.5240 C   0  0  0  0  0  0  0  0  0  0  0  0
    2.6820   -0.9990    0.2590 C   0  0  0  0  0  0  0  0  0  0  0  0
    1.8680   -0.1980   -0.3520 C   0  0  0  0  0  0  0  0  0  0  0  0
    0.5140   -0.4410   -0.6100 O   0  0  0  0  0  0  0  0  0  0  0  0
   -0.4550    0.0630    0.2550 C   0  0  0  0  0  0  0  0  0  0  0  0
   -0.0220    0.7170    1.2340 O   0  0  0  0  0  0  0  0  0  0  0  0
   -1.9010   -0.1580    0.0330 C   0  0  2  0  0  0  0  0  0  0  0  0
   -2.3720    0.3980   -1.3130 C   0  0  0  0  0  0  0  0  0  0  0  0
   -3.8040   -0.1500   -1.4350 C   0  0  0  0  0  0  0  0  0  0  0  0
   -4.5410    0.5580   -0.5430 O   0  0  0  0  0  0  0  0  0  0  0  0
   -4.2200    0.4600    0.7760 C   0  0  1  0  0  0  0  0  0  0  0  0
   -5.1210   -0.5970    1.3870 C   0  0  0  0  0  0  0  0  0  0  0  0
   -2.7970    0.2270    1.1470 C   0  0  2  0  0  0  0  0  0  0  0  0
   -2.3010    1.4460    1.9060 C   0  0  0  0  0  0  0  0  0  0  0  0
   -2.7810   -0.8140    2.1080 O   0  0  0  0  0  0  0  0  0  0  0  0
    2.3960    1.1100   -0.8390 C   0  0  0  0  0  0  0  0  0  0  0  0
    1.8190    2.0990   -1.4700 C   0  0  0  0  0  0  0  0  0  0  0  0
    2.8090    3.1540   -1.7090 C   0  0  0  0  0  0  0  0  0  0  0  0
    4.0540    2.6410   -1.1220 C   0  0  0  0  0  0  0  0  0  0  0  0
    3.7730    1.4320   -0.6190 C   0  0  0  0  0  0  0  0  0  0  0  0
    4.7100    0.5210    0.0490 C   0  0  0  0  0  0  0  0  0  0  0  0
    4.1140   -0.7070    0.5510 C   0  0  0  0  0  0  0  0  0  0  0  0
  1  2  2  0
  2  3  1  0
  2  4  1  0
  4  5  2  0
  4 24  1  0
  5  6  1  0
  5 18  1  0
  6  7  1  0
  7  8  2  0
  9  7  1  1
  9 10  1  0
  9 15  1  0
 10 11  1  0
 11 12  1  0
 12 13  1  0
 13 14  1  6
 13 15  1  0
 15 16  1  1
 15 17  1  0
 18 19  2  0
 18 22  1  0
 19 20  1  0
 20 21  1  0
 21 22  2  0
 22 23  1  0
 23 24  1  0
M  END
