
     RDKit          3D

 24 26  0  0  0  0  0  0  0  0999 V2000
    5.7900    0.5550   -0.3190 C   0  0  0  0  0  0  0  0  0  0  0  0
    4.8290   -0.2640    0.4800 C   0  0  0  0  0  0  0  0  0  0  0  0
    3.7040   -0.8320   -0.3660 C   0  0  1  0  0  0  0  0  0  0  0  0
    2.8140   -1.6140    0.4820 C   0  0  0  0  0  0  0  0  0  0  0  0
    1.5240   -1.3290    0.7360 C   0  0  0  0  0  0  0  0  0  0  0  0
    0.9160   -0.1520    0.1360 C   0  0  0  0  0  0  0  0  0  0  0  0
   -0.3140    0.0320   -0.1040 C   0  0  0  0  0  0  0  0  0  0  0  0
   -0.9950    1.2740   -0.7280 C   0  0  0  0  0  0  0  0  0  0  0  0
   -2.1340    1.3190    0.2600 C   0  0  1  0  0  0  0  0  0  0  0  0
   -3.1770    2.2640    0.1860 C   0  0  0  0  0  0  0  0  0  0  0  0
   -2.9030    3.6970   -0.0850 C   0  0  0  0  0  0  0  0  0  0  0  0
   -1.7130    4.0600   -0.2490 O   0  0  0  0  0  0  0  0  0  0  0  0
   -3.8920    4.6370   -0.1630 O   0  0  0  0  0  0  0  0  0  0  0  0
   -4.4440    1.9140    0.3550 C   0  0  0  0  0  0  0  0  0  0  0  0
   -4.8800    0.5450    0.5970 C   0  0  0  0  0  0  0  0  0  0  0  0
   -3.9570   -0.4030    0.6050 C   0  0  0  0  0  0  0  0  0  0  0  0
   -2.5690   -0.0890    0.3470 C   0  0  0  0  0  0  0  0  0  0  0  0
   -1.4850   -0.8710    0.0760 C   0  0  0  0  0  0  0  0  0  0  0  0
   -1.5310   -2.2990   -0.0400 C   0  0  0  0  0  0  0  0  0  0  0  0
   -0.5580   -3.0420   -0.3180 O   0  0  0  0  0  0  0  0  0  0  0  0
   -2.7310   -3.0020    0.1600 O   0  0  0  0  0  0  0  0  0  0  0  0
   -2.8160   -4.3940    0.0570 C   0  0  0  0  0  0  0  0  0  0  0  0
    1.9380    0.8810   -0.2740 C   0  0  0  0  0  0  0  0  0  0  0  0
    2.9890    0.2140   -1.1410 C   0  0  0  0  0  0  0  0  0  0  0  0
  1  2  1  0
  3  2  1  1
  3  4  1  0
  3 24  1  0
  4  5  2  0
  5  6  1  0
  6  7  2  3
  6 23  1  0
  7  8  1  0
  7 18  1  0
  9  8  1  6
  9 10  1  0
  9 17  1  0
 10 11  1  0
 10 14  2  0
 11 12  2  0
 11 13  1  0
 14 15  1  0
 15 16  2  0
 16 17  1  0
 17 18  2  0
 18 19  1  0
 19 20  2  0
 19 21  1  0
 21 22  1  0
 23 24  1  0
M  END
