
     RDKit          3D

  9  9  0  0  0  0  0  0  0  0999 V2000
    3.1910    0.4600    0.0250 C   0  0  0  0  0  0  0  0  0  0  0  0
    1.7200    0.5690   -0.1440 C   0  0  0  0  0  0  0  0  0  0  0  0
    1.2410    1.5900   -0.6690 O   0  0  0  0  0  0  0  0  0  0  0  0
    0.8210   -0.4480    0.2700 N   0  0  0  0  0  0  0  0  0  0  0  0
   -0.6310   -0.2140    0.0440 C   0  0  0  0  0  0  0  0  0  0  0  0
   -1.6460   -1.0240    0.3500 C   0  0  0  0  0  0  0  0  0  0  0  0
   -2.9020   -0.6470    0.0700 C   0  0  0  0  0  0  0  0  0  0  0  0
   -3.0550    0.5780   -0.5270 C   0  0  0  0  0  0  0  0  0  0  0  0
   -1.3460    1.1540   -0.6660 S   0  0  0  0  0  0  0  0  0  0  0  0
  1  2  1  0
  2  3  2  0
  2  4  1  0
  4  5  1  0
  5  6  2  0
  5  9  1  0
  6  7  1  0
  7  8  2  0
  8  9  1  0
M  END
