
     RDKit          3D

 22 22  0  0  0  0  0  0  0  0999 V2000
   -5.2950   -2.5640   -0.5030 O   0  0  0  0  0  0  0  0  0  0  0  0
   -4.2450   -2.1080   -0.0210 C   0  0  0  0  0  0  0  0  0  0  0  0
   -4.0810   -2.0390    1.3410 O   0  0  0  0  0  0  0  0  0  0  0  0
   -3.1730   -1.6410   -0.9130 C   0  0  0  0  0  0  0  0  0  0  0  0
   -1.9760   -1.1220   -0.0580 C   0  0  2  0  0  0  0  0  0  0  0  0
   -2.5630   -0.1010    0.6670 O   0  0  0  0  0  0  0  0  0  0  0  0
   -0.9410   -0.7040   -1.0260 C   0  0  1  0  0  0  0  0  0  0  0  0
   -1.6950    0.1470   -1.9410 O   0  0  0  0  0  0  0  0  0  0  0  0
    0.2450    0.0640   -0.5750 C   0  0  2  0  0  0  0  0  0  0  0  0
    1.3260   -0.7450    0.0820 C   0  0  0  0  0  0  0  0  0  0  0  0
    1.0130   -1.4960    1.3070 C   0  0  0  0  0  0  0  0  0  0  0  0
    2.2090   -2.1520    1.7990 O   0  0  0  0  0  0  0  0  0  0  0  0
    3.3340   -1.4950    2.1940 C   0  0  0  0  0  0  0  0  0  0  0  0
    3.3970   -0.2600    2.1560 O   0  0  0  0  0  0  0  0  0  0  0  0
    4.3980   -2.2980    2.6390 O   0  0  0  0  0  0  0  0  0  0  0  0
   -0.0480    1.2580    0.2640 C   0  0  0  0  0  0  0  0  0  0  0  0
    1.1680    2.1540    0.3380 C   0  0  2  0  0  0  0  0  0  0  0  0
    0.7690    3.2350    1.1680 O   0  0  0  0  0  0  0  0  0  0  0  0
    1.4420    2.6510   -1.0440 C   0  0  1  0  0  0  0  0  0  0  0  0
    2.8280    2.8980   -1.1760 O   0  0  0  0  0  0  0  0  0  0  0  0
    0.9960    1.7030   -2.0800 C   0  0  0  0  0  0  0  0  0  0  0  0
    0.8340    0.4280   -1.7950 O   0  0  0  0  0  0  0  0  0  0  0  0
  1  2  2  0
  2  3  1  0
  2  4  1  0
  4  5  1  0
  5  6  1  6
  5  7  1  0
  7  8  1  6
  7  9  1  0
  9 10  1  1
  9 16  1  0
  9 22  1  0
 10 11  1  0
 11 12  1  0
 12 13  1  0
 13 14  2  0
 13 15  1  0
 16 17  1  0
 17 18  1  1
 17 19  1  0
 19 20  1  1
 19 21  1  0
 21 22  1  0
M  END
