
     RDKit          3D

 11 12  0  0  0  0  0  0  0  0999 V2000
   -2.7030   -1.2580   -0.3870 N   0  0  0  0  0  0  0  0  0  0  0  0
   -1.4840   -0.5620   -0.1650 C   0  0  0  0  0  0  0  0  0  0  0  0
   -0.2750   -1.1010   -0.3970 N   0  0  0  0  0  0  0  0  0  0  0  0
    0.8800   -0.4290   -0.1820 C   0  0  0  0  0  0  0  0  0  0  0  0
    2.1860   -0.7050   -0.3200 N   0  0  0  0  0  0  0  0  0  0  0  0
    2.9590    0.3320    0.0400 C   0  0  0  0  0  0  0  0  0  0  0  0
    2.1060    1.3010    0.4200 N   0  0  0  0  0  0  0  0  0  0  0  0
    0.8360    0.8660    0.2950 C   0  0  0  0  0  0  0  0  0  0  0  0
   -0.4020    1.4190    0.5320 C   0  0  0  0  0  0  0  0  0  0  0  0
   -0.4340    2.5990    0.9670 O   0  0  0  0  0  0  0  0  0  0  0  0
   -1.5110    0.6950    0.2970 N   0  0  0  0  0  0  0  0  0  0  0  0
  1  2  1  0
  2  3  2  0
  2 11  1  0
  3  4  1  0
  4  5  1  0
  4  8  2  0
  5  6  1  0
  6  7  2  0
  7  8  1  0
  8  9  1  0
  9 10  2  0
  9 11  1  0
M  END
