
     RDKit          3D

 16 17  0  0  0  0  0  0  0  0999 V2000
    4.0780    0.3380   -1.4780 C   0  0  0  0  0  0  0  0  0  0  0  0
    3.4880   -0.0500   -0.1390 C   0  0  2  0  0  0  0  0  0  0  0  0
    4.1800   -1.3130    0.3140 C   0  0  0  0  0  0  0  0  0  0  0  0
    2.1230   -0.1680   -0.1660 O   0  0  0  0  0  0  0  0  0  0  0  0
    1.5180    0.7320    0.6730 C   0  0  0  0  0  0  0  0  0  0  0  0
    0.0360    0.6200    0.6590 C   0  0  0  0  0  0  0  0  0  0  0  0
   -0.6340   -0.2990   -0.1220 C   0  0  0  0  0  0  0  0  0  0  0  0
   -1.9980   -0.3920   -0.1250 C   0  0  0  0  0  0  0  0  0  0  0  0
   -2.7330    0.4550    0.6730 C   0  0  0  0  0  0  0  0  0  0  0  0
   -2.1100    1.3880    1.4700 C   0  0  0  0  0  0  0  0  0  0  0  0
   -0.7170    1.4570    1.4510 C   0  0  0  0  0  0  0  0  0  0  0  0
   -0.0630    2.3860    2.2420 O   0  0  0  0  0  0  0  0  0  0  0  0
   -4.2090    0.2970    0.6170 C   0  0  0  0  0  0  0  0  0  0  0  0
   -4.5280    0.1810   -0.7430 O   0  0  0  0  0  0  0  0  0  0  0  0
   -4.1250   -1.0170   -1.2660 C   0  0  0  0  0  0  0  0  0  0  0  0
   -2.7150   -1.3980   -0.9820 C   0  0  0  0  0  0  0  0  0  0  0  0
  2  1  1  6
  2  3  1  0
  2  4  1  0
  4  5  1  0
  5  6  1  0
  6  7  2  0
  6 11  1  0
  7  8  1  0
  8  9  2  0
  8 16  1  0
  9 10  1  0
  9 13  1  0
 10 11  2  0
 11 12  1  0
 13 14  1  0
 14 15  1  0
 15 16  1  0
M  END
