
     RDKit          3D

 23 24  0  0  0  0  0  0  0  0999 V2000
    8.2810    0.7540    0.4380 C   0  0  0  0  0  0  0  0  0  0  0  0
    6.9200    0.6170   -0.1410 C   0  0  0  0  0  0  0  0  0  0  0  0
    6.1290    1.5840   -0.2680 O   0  0  0  0  0  0  0  0  0  0  0  0
    6.4860   -0.6480   -0.5680 N   0  0  0  0  0  0  0  0  0  0  0  0
    5.2170   -0.8210   -1.1170 N   0  0  0  0  0  0  0  0  0  0  0  0
    4.0580   -0.4430   -0.3700 C   0  0  0  0  0  0  0  0  0  0  0  0
    4.2500    0.0290    0.7540 O   0  0  0  0  0  0  0  0  0  0  0  0
    2.7510   -0.5860   -0.8540 N   0  0  0  0  0  0  0  0  0  0  0  0
    1.5480   -0.2430   -0.2050 C   0  0  0  0  0  0  0  0  0  0  0  0
    0.3530   -0.5260   -0.8670 C   0  0  0  0  0  0  0  0  0  0  0  0
   -0.8850   -0.2300   -0.3400 C   0  0  0  0  0  0  0  0  0  0  0  0
   -0.9830    0.3660    0.8790 C   0  0  0  0  0  0  0  0  0  0  0  0
   -2.2440    0.7040    1.4420 N   0  0  0  0  0  0  0  0  0  0  0  0
   -3.4620    0.5600    0.6960 C   0  0  0  0  0  0  0  0  0  0  0  0
   -4.2990   -0.4200    0.9060 C   0  0  0  0  0  0  0  0  0  0  0  0
   -5.5270   -0.5670    0.1560 C   0  0  0  0  0  0  0  0  0  0  0  0
   -6.4630   -1.7160    0.4430 C   0  0  0  0  0  0  0  0  0  0  0  0
   -5.8530    0.2880   -0.7770 C   0  0  0  0  0  0  0  0  0  0  0  0
   -7.5060    0.0620   -1.7630 Br  0  0  0  0  0  0  0  0  0  0  0  0
   -4.9820    1.4310   -1.1020 C   0  0  0  0  0  0  0  0  0  0  0  0
   -3.7400    1.5830   -0.3300 C   0  0  0  0  0  0  0  0  0  0  0  0
    0.1620    0.6650    1.5730 C   0  0  0  0  0  0  0  0  0  0  0  0
    1.4130    0.3560    1.0210 C   0  0  0  0  0  0  0  0  0  0  0  0
  1  2  1  0
  2  3  2  0
  2  4  1  0
  4  5  1  0
  5  6  1  0
  6  7  2  0
  6  8  1  0
  8  9  1  0
  9 10  2  0
  9 23  1  0
 10 11  1  0
 11 12  2  0
 12 13  1  0
 12 22  1  0
 13 14  1  0
 14 15  2  0
 14 21  1  0
 15 16  1  0
 16 17  1  0
 16 18  2  0
 18 19  1  0
 18 20  1  0
 20 21  1  0
 22 23  2  0
M  END
