
     RDKit          3D

 23 24  0  0  0  0  0  0  0  0999 V2000
   -4.9250    0.4940   -0.4580 C   0  0  0  0  0  0  0  0  0  0  0  0
   -3.4330    0.1490   -0.1840 C   0  0  0  0  0  0  0  0  0  0  0  0
   -2.9690   -0.9280   -1.0640 C   0  0  0  0  0  0  0  0  0  0  0  0
   -4.1470   -1.9030   -1.2280 N   0  0  0  0  0  0  0  0  0  0  0  0
   -2.9670    0.6680    0.8990 C   0  0  0  0  0  0  0  0  0  0  0  0
   -3.8770    1.4500    1.7280 N   0  0  0  0  0  0  0  0  0  0  0  0
   -3.4900    2.0870    2.9330 C   0  0  0  0  0  0  0  0  0  0  0  0
   -2.2600    1.9850    3.3430 C   0  0  0  0  0  0  0  0  0  0  0  0
   -1.3240    1.2140    2.5270 C   0  0  0  0  0  0  0  0  0  0  0  0
   -1.5820    0.5920    1.3940 C   0  0  0  0  0  0  0  0  0  0  0  0
   -0.5890    0.0590    0.5040 C   0  0  0  0  0  0  0  0  0  0  0  0
   -0.5200   -0.4740   -0.5160 O   0  0  0  0  0  0  0  0  0  0  0  0
    1.0110    0.2860    1.1380 N   0  0  0  0  0  0  0  0  0  0  0  0
    1.7320   -0.1500    0.0190 C   0  0  0  0  0  0  0  0  0  0  0  0
    1.4280   -0.5240   -1.0550 O   0  0  0  0  0  0  0  0  0  0  0  0
    3.1770   -0.0870    0.3790 N   0  0  0  0  0  0  0  0  0  0  0  0
    4.2130   -0.4120   -0.4460 C   0  0  0  0  0  0  0  0  0  0  0  0
    4.0970   -0.8430   -1.7560 C   0  0  0  0  0  0  0  0  0  0  0  0
    5.2090   -1.1350   -2.5050 C   0  0  0  0  0  0  0  0  0  0  0  0
    6.4490   -0.9990   -1.9520 C   0  0  0  0  0  0  0  0  0  0  0  0
    6.5890   -0.5720   -0.6530 C   0  0  0  0  0  0  0  0  0  0  0  0
    5.5020   -0.2750    0.1140 C   0  0  0  0  0  0  0  0  0  0  0  0
    5.6870    0.3330    1.9150 Br  0  0  0  0  0  0  0  0  0  0  0  0
  1  2  1  0
  2  3  1  0
  2  5  2  3
  3  4  1  0
  5  6  1  0
  5 10  1  0
  6  7  1  0
  7  8  2  0
  8  9  1  0
  9 10  2  0
 10 11  1  0
 11 12  2  0
 11 13  1  0
 13 14  1  0
 14 15  2  0
 14 16  1  0
 16 17  1  0
 17 18  2  0
 17 22  1  0
 18 19  1  0
 19 20  2  0
 20 21  1  0
 21 22  2  0
 22 23  1  0
M  END
