
     RDKit          3D

 16 17  0  0  0  0  0  0  0  0999 V2000
    3.0650    1.6970   -0.6540 C   0  0  0  0  0  0  0  0  0  0  0  0
    2.9450    0.4970    0.2750 C   0  0  2  0  0  0  0  0  0  0  0  0
    4.3450   -0.0130    0.6330 C   0  0  0  0  0  0  0  0  0  0  0  0
    2.2720   -0.6130   -0.4230 C   0  0  0  0  0  0  0  0  0  0  0  0
    1.1770   -1.1760    0.0110 C   0  0  0  0  0  0  0  0  0  0  0  0
    0.4680   -0.7960    1.2330 C   0  0  0  0  0  0  0  0  0  0  0  0
   -0.9330   -0.4270    0.8230 C   0  0  0  0  0  0  0  0  0  0  0  0
   -1.9560   -1.3170    1.0510 C   0  0  0  0  0  0  0  0  0  0  0  0
   -3.2650   -1.0020    0.6800 C   0  0  0  0  0  0  0  0  0  0  0  0
   -3.4810    0.2190    0.0870 C   0  0  0  0  0  0  0  0  0  0  0  0
   -2.4430    1.1030   -0.1350 C   0  0  0  0  0  0  0  0  0  0  0  0
   -1.1400    0.7990    0.2290 C   0  0  0  0  0  0  0  0  0  0  0  0
   -0.1110    1.6990   -0.0010 O   0  0  0  0  0  0  0  0  0  0  0  0
   -4.8390    0.3050   -0.1880 O   0  0  0  0  0  0  0  0  0  0  0  0
   -5.4180   -0.9570    0.0730 C   0  0  0  0  0  0  0  0  0  0  0  0
   -4.4660   -1.7100    0.7940 O   0  0  0  0  0  0  0  0  0  0  0  0
  2  1  1  6
  2  3  1  0
  2  4  1  0
  4  5  2  3
  5  6  1  0
  6  7  1  0
  7  8  2  0
  7 12  1  0
  8  9  1  0
  9 10  2  0
  9 16  1  0
 10 11  1  0
 10 14  1  0
 11 12  2  0
 12 13  1  0
 14 15  1  0
 15 16  1  0
M  END
