
     RDKit          3D

 23 24  0  0  0  0  0  0  0  0999 V2000
    0.9380    4.0970   -1.2270 C   0  0  0  0  0  0  0  0  0  0  0  0
    0.4900    3.7660    0.1910 C   0  0  0  0  0  0  0  0  0  0  0  0
   -0.0980    2.4230    0.2340 N   0  0  0  0  0  0  0  0  0  0  0  0
    0.6380    1.3390    0.4890 C   0  0  0  0  0  0  0  0  0  0  0  0
    2.0780    1.5160    0.7430 C   0  0  0  0  0  0  0  0  0  0  0  0
    2.8170    0.2770    0.8070 N   0  0  0  0  0  0  0  0  0  0  0  0
    2.8800   -0.5990   -0.3100 C   0  0  0  0  0  0  0  0  0  0  0  0
    2.2760   -0.2590   -1.3640 O   0  0  0  0  0  0  0  0  0  0  0  0
    3.6120   -1.8390   -0.2430 N   0  0  0  0  0  0  0  0  0  0  0  0
    3.6610   -2.7090   -1.3830 C   0  0  0  0  0  0  0  0  0  0  0  0
    0.0640    0.0910    0.5210 C   0  0  0  0  0  0  0  0  0  0  0  0
   -1.2820   -0.0960    0.2940 C   0  0  0  0  0  0  0  0  0  0  0  0
   -1.9330   -1.3990    0.3180 C   0  0  0  0  0  0  0  0  0  0  0  0
   -2.0990   -2.1480    1.4780 C   0  0  0  0  0  0  0  0  0  0  0  0
   -2.7260   -3.3740    1.4180 C   0  0  0  0  0  0  0  0  0  0  0  0
   -3.1900   -3.8600    0.1940 C   0  0  0  0  0  0  0  0  0  0  0  0
   -3.0350   -3.1350   -0.9640 C   0  0  0  0  0  0  0  0  0  0  0  0
   -2.4050   -1.9130   -0.8680 C   0  0  0  0  0  0  0  0  0  0  0  0
   -2.1860   -0.9020   -2.4670 Br  0  0  0  0  0  0  0  0  0  0  0  0
   -2.0000    1.0630    0.0340 C   0  0  0  0  0  0  0  0  0  0  0  0
   -3.3940    0.9510   -0.2120 N   0  0  0  0  0  0  0  0  0  0  0  0
   -1.4080    2.3060    0.0060 C   0  0  0  0  0  0  0  0  0  0  0  0
   -2.1130    3.3500   -0.2390 O   0  0  0  0  0  0  0  0  0  0  0  0
  1  2  1  0
  2  3  1  0
  3  4  1  0
  3 22  1  0
  4  5  1  0
  4 11  2  0
  5  6  1  0
  6  7  1  0
  7  8  2  0
  7  9  1  0
  9 10  1  0
 11 12  1  0
 12 13  1  0
 12 20  2  0
 13 14  2  0
 13 18  1  0
 14 15  1  0
 15 16  2  0
 16 17  1  0
 17 18  2  0
 18 19  1  0
 20 21  1  0
 20 22  1  0
 22 23  2  0
M  END
