
     RDKit          3D

 16 17  0  0  0  0  0  0  0  0999 V2000
   -2.6960    1.8340   -1.2100 C   0  0  0  0  0  0  0  0  0  0  0  0
   -2.5280    0.5490   -0.5040 C   0  0  0  0  0  0  0  0  0  0  0  0
   -3.6100   -0.1580   -0.2250 C   0  0  0  0  0  0  0  0  0  0  0  0
   -3.4970   -1.4310    0.4690 C   0  0  0  0  0  0  0  0  0  0  0  0
   -4.5080   -2.1370    0.7540 O   0  0  0  0  0  0  0  0  0  0  0  0
   -2.1720   -1.8770    0.8340 C   0  0  0  0  0  0  0  0  0  0  0  0
   -1.0740   -1.1570    0.5500 C   0  0  0  0  0  0  0  0  0  0  0  0
    0.1780   -1.6300    0.9220 O   0  0  0  0  0  0  0  0  0  0  0  0
   -1.1750    0.1130   -0.1430 C   0  0  0  0  0  0  0  0  0  0  0  0
   -0.1620    0.8750   -0.4460 C   0  0  0  0  0  0  0  0  0  0  0  0
    1.2460    0.6400   -0.1880 C   0  0  0  0  0  0  0  0  0  0  0  0
    2.1000    1.6560    0.2650 C   0  0  0  0  0  0  0  0  0  0  0  0
    3.3600    1.1230    0.4100 C   0  0  0  0  0  0  0  0  0  0  0  0
    3.2390   -0.1980    0.0410 C   0  0  0  0  0  0  0  0  0  0  0  0
    4.3620   -1.2040    0.0320 C   0  0  0  0  0  0  0  0  0  0  0  0
    2.0060   -0.4070   -0.2890 O   0  0  0  0  0  0  0  0  0  0  0  0
  1  2  1  0
  2  3  2  0
  2  9  1  0
  3  4  1  0
  4  5  2  0
  4  6  1  0
  6  7  2  0
  7  8  1  0
  7  9  1  0
  9 10  2  3
 10 11  1  0
 11 12  2  0
 11 16  1  0
 12 13  1  0
 13 14  2  0
 14 15  1  0
 14 16  1  0
M  END
