
     RDKit          3D

 16 17  0  0  0  0  0  0  0  0999 V2000
   -3.7270    0.4930   -1.2680 C   0  0  0  0  0  0  0  0  0  0  0  0
   -2.9890    0.4540    0.0540 C   0  0  2  0  0  0  0  0  0  0  0  0
   -3.5930    1.5390    0.9420 C   0  0  0  0  0  0  0  0  0  0  0  0
   -1.6350    0.5320   -0.0570 O   0  0  0  0  0  0  0  0  0  0  0  0
   -0.5620   -0.1910    0.2560 C   0  0  0  0  0  0  0  0  0  0  0  0
    0.6990    0.3020   -0.0640 C   0  0  0  0  0  0  0  0  0  0  0  0
    1.8530   -0.3590    0.2130 C   0  0  0  0  0  0  0  0  0  0  0  0
    3.1410    0.2220   -0.1530 C   0  0  0  0  0  0  0  0  0  0  0  0
    4.3050   -0.4380   -0.5100 C   0  0  0  0  0  0  0  0  0  0  0  0
    5.2700    0.5100   -0.7720 C   0  0  0  0  0  0  0  0  0  0  0  0
    4.7170    1.6930   -0.5810 O   0  0  0  0  0  0  0  0  0  0  0  0
    3.4750    1.5720   -0.2190 C   0  0  0  0  0  0  0  0  0  0  0  0
    1.7730   -1.5770    0.8420 C   0  0  0  0  0  0  0  0  0  0  0  0
    0.5560   -2.1220    1.1860 C   0  0  0  0  0  0  0  0  0  0  0  0
   -0.6170   -1.4100    0.8840 C   0  0  0  0  0  0  0  0  0  0  0  0
   -1.8010   -2.0180    1.2590 O   0  0  0  0  0  0  0  0  0  0  0  0
  2  1  1  6
  2  3  1  0
  2  4  1  0
  4  5  1  0
  5  6  2  0
  5 15  1  0
  6  7  1  0
  7  8  1  0
  7 13  2  0
  8  9  1  0
  8 12  2  0
  9 10  2  0
 10 11  1  0
 11 12  1  0
 13 14  1  0
 14 15  2  0
 15 16  1  0
M  END
