
     RDKit          3D

 16 17  0  0  0  0  0  0  0  0999 V2000
    4.2670    0.9310    0.6310 C   0  0  0  0  0  0  0  0  0  0  0  0
    3.6450    0.6190   -0.7120 C   0  0  0  0  0  0  0  0  0  0  0  0
    2.4270   -0.2210   -0.5410 C   0  0  0  0  0  0  0  0  0  0  0  0
    2.4290   -1.6100   -0.5280 C   0  0  0  0  0  0  0  0  0  0  0  0
    1.1070   -1.9590   -0.3480 C   0  0  0  0  0  0  0  0  0  0  0  0
    0.3620   -0.8010   -0.2590 C   0  0  0  0  0  0  0  0  0  0  0  0
   -1.0800   -0.6940   -0.0660 C   0  0  0  0  0  0  0  0  0  0  0  0
   -1.8800   -1.8260    0.0520 C   0  0  0  0  0  0  0  0  0  0  0  0
   -3.2440   -1.7310    0.2340 C   0  0  0  0  0  0  0  0  0  0  0  0
   -4.0750   -2.8330    0.3560 O   0  0  0  0  0  0  0  0  0  0  0  0
   -3.8240   -0.4840    0.3000 C   0  0  0  0  0  0  0  0  0  0  0  0
   -3.0650    0.6600    0.1870 C   0  0  0  0  0  0  0  0  0  0  0  0
   -1.7020    0.5340    0.0060 C   0  0  0  0  0  0  0  0  0  0  0  0
   -0.8590    1.6500   -0.1180 O   0  0  0  0  0  0  0  0  0  0  0  0
   -1.4520    2.9160   -0.0510 C   0  0  0  0  0  0  0  0  0  0  0  0
    1.1900    0.1840   -0.3790 O   0  0  0  0  0  0  0  0  0  0  0  0
  1  2  1  0
  2  3  1  0
  3  4  2  0
  3 16  1  0
  4  5  1  0
  5  6  2  0
  6  7  1  0
  6 16  1  0
  7  8  2  0
  7 13  1  0
  8  9  1  0
  9 10  1  0
  9 11  2  0
 11 12  1  0
 12 13  2  0
 13 14  1  0
 14 15  1  0
M  END
