
     RDKit          3D

 19 21  0  0  0  0  0  0  0  0999 V2000
    4.5680   -1.2480   -0.6740 N   0  0  0  0  0  0  0  0  0  0  0  0
    3.1390   -1.0900   -0.5450 C   0  0  1  0  0  0  0  0  0  0  0  0
    2.6090   -1.8370    0.6860 C   0  0  0  0  0  0  0  0  0  0  0  0
    1.1980   -1.2430    0.7400 C   0  0  0  0  0  0  0  0  0  0  0  0
    1.3680    0.1070    0.2960 N   0  0  0  0  0  0  0  0  0  0  0  0
    0.4470    1.2070    0.2430 C   0  0  0  0  0  0  0  0  0  0  0  0
    0.7650    2.2560    0.9480 N   0  0  0  0  0  0  0  0  0  0  0  0
    0.1080    3.4780    1.1180 N   0  0  0  0  0  0  0  0  0  0  0  0
   -0.8080    4.1200    0.2100 C   0  0  0  0  0  0  0  0  0  0  0  0
   -1.5400    3.4880   -0.6930 C   0  0  0  0  0  0  0  0  0  0  0  0
   -1.6000    2.0580   -0.9780 C   0  0  0  0  0  0  0  0  0  0  0  0
   -0.7500    1.0910   -0.5760 C   0  0  0  0  0  0  0  0  0  0  0  0
   -1.0520   -0.1650   -0.9890 O   0  0  0  0  0  0  0  0  0  0  0  0
   -2.0630   -1.0220   -0.6560 C   0  0  1  0  0  0  0  0  0  0  0  0
   -2.1900   -1.4530    0.7670 C   0  0  0  0  0  0  0  0  0  0  0  0
   -3.6050   -2.0460    0.7520 C   0  0  0  0  0  0  0  0  0  0  0  0
   -4.2440   -1.5790   -0.3770 O   0  0  0  0  0  0  0  0  0  0  0  0
   -3.4770   -0.5280   -0.8850 C   0  0  0  0  0  0  0  0  0  0  0  0
    2.7500    0.3190   -0.1630 C   0  0  0  0  0  0  0  0  0  0  0  0
  2  1  1  1
  2  3  1  0
  2 19  1  0
  3  4  1  0
  4  5  1  0
  5  6  1  0
  5 19  1  0
  6  7  2  0
  6 12  1  0
  7  8  1  0
  8  9  1  0
  9 10  2  0
 10 11  1  0
 11 12  2  0
 12 13  1  0
 14 13  1  1
 14 15  1  0
 14 18  1  0
 15 16  1  0
 16 17  1  0
 17 18  1  0
M  CHG  1   1   1
M  END
