
     RDKit          3D

 12 11  0  0  0  0  0  0  0  0999 V2000
    4.8950   -0.3320    0.7530 O   0  0  0  0  0  0  0  0  0  0  0  0
    3.5500   -0.1690    0.4790 C   0  0  0  0  0  0  0  0  0  0  0  0
    3.2630   -0.6390   -0.8100 O   0  0  0  0  0  0  0  0  0  0  0  0
    1.9030   -0.4650   -1.0660 C   0  0  0  0  0  0  0  0  0  0  0  0
    1.2010   -1.1810   -0.1280 O   0  0  0  0  0  0  0  0  0  0  0  0
   -0.1760   -1.1050   -0.2560 C   0  0  0  0  0  0  0  0  0  0  0  0
   -0.7050    0.3050   -0.1370 C   0  0  2  0  0  0  0  0  0  0  0  0
   -0.3880    0.8640    1.0920 O   0  0  0  0  0  0  0  0  0  0  0  0
   -2.2110    0.3470   -0.2630 C   0  0  1  0  0  0  0  0  0  0  0  0
   -2.6680   -0.1850   -1.4540 O   0  0  0  0  0  0  0  0  0  0  0  0
   -2.8780   -0.2410    0.9520 C   0  0  0  0  0  0  0  0  0  0  0  0
   -4.2420   -0.0140    0.9020 O   0  0  0  0  0  0  0  0  0  0  0  0
  1  2  1  0
  2  3  1  0
  3  4  1  0
  4  5  1  0
  5  6  1  0
  6  7  1  0
  7  8  1  1
  7  9  1  0
  9 10  1  6
  9 11  1  0
 11 12  1  0
M  END
