
     RDKit          3D

 12 11  0  0  0  0  0  0  0  0999 V2000
    3.9490   -0.4190    1.5600 O   0  0  0  0  0  0  0  0  0  0  0  0
    3.3280   -1.0400    0.4580 C   0  0  0  0  0  0  0  0  0  0  0  0
    2.0580   -1.3640    0.8620 O   0  0  0  0  0  0  0  0  0  0  0  0
    1.2770   -1.9920   -0.0900 C   0  0  0  0  0  0  0  0  0  0  0  0
    1.0680   -1.1610   -1.3350 C   0  0  0  0  0  0  0  0  0  0  0  0
    0.4590    0.0380   -1.1120 O   0  0  0  0  0  0  0  0  0  0  0  0
   -0.8060   -0.0070   -0.5610 C   0  0  0  0  0  0  0  0  0  0  0  0
   -1.2450    1.3150   -0.4230 O   0  0  0  0  0  0  0  0  0  0  0  0
   -2.5050    1.4020    0.1210 C   0  0  2  0  0  0  0  0  0  0  0  0
   -3.4500    1.9500   -0.7450 O   0  0  0  0  0  0  0  0  0  0  0  0
   -2.5100    2.0780    1.4760 C   0  0  0  0  0  0  0  0  0  0  0  0
   -1.6840    1.2860    2.3060 O   0  0  0  0  0  0  0  0  0  0  0  0
  1  2  1  0
  2  3  1  0
  3  4  1  0
  4  5  1  0
  5  6  1  0
  6  7  1  0
  7  8  1  0
  8  9  1  0
  9 10  1  6
  9 11  1  0
 11 12  1  0
M  END
