
     RDKit          3D

 12 11  0  0  0  0  0  0  0  0999 V2000
    1.0740   -2.4500    0.7730 O   0  0  0  0  0  0  0  0  0  0  0  0
    0.6420   -1.3540    0.3340 C   0  0  0  0  0  0  0  0  0  0  0  0
   -0.8200   -1.1470    0.1510 C   0  0  0  0  0  0  0  0  0  0  0  0
   -1.1030    0.1210   -0.3420 O   0  0  0  0  0  0  0  0  0  0  0  0
   -2.4800    0.2530   -0.4900 C   0  0  2  0  0  0  0  0  0  0  0  0
   -2.8400    0.5020   -1.8090 O   0  0  0  0  0  0  0  0  0  0  0  0
   -2.9640    1.3460    0.4460 C   0  0  0  0  0  0  0  0  0  0  0  0
   -2.6520    0.9840    1.7410 O   0  0  0  0  0  0  0  0  0  0  0  0
    1.5810   -0.3770    0.0370 O   0  0  0  0  0  0  0  0  0  0  0  0
    2.9740   -0.6420    0.2350 C   0  0  0  0  0  0  0  0  0  0  0  0
    3.8010    0.5680   -0.1570 C   0  0  0  0  0  0  0  0  0  0  0  0
    3.6170    0.9010   -1.4800 O   0  0  0  0  0  0  0  0  0  0  0  0
  1  2  2  0
  2  3  1  0
  2  9  1  0
  3  4  1  0
  4  5  1  0
  5  6  1  6
  5  7  1  0
  7  8  1  0
  9 10  1  0
 10 11  1  0
 11 12  1  0
M  END
