
     RDKit          3D

 12 11  0  0  0  0  0  0  0  0999 V2000
   -3.7760    1.6430    0.5190 O   0  0  0  0  0  0  0  0  0  0  0  0
   -3.9300    0.2950    0.2530 C   0  0  0  0  0  0  0  0  0  0  0  0
   -2.7480   -0.5330    0.7100 C   0  0  2  0  0  0  0  0  0  0  0  0
   -2.5860   -0.3880    2.0700 O   0  0  0  0  0  0  0  0  0  0  0  0
   -1.5220   -0.0460   -0.0300 C   0  0  0  0  0  0  0  0  0  0  0  0
   -0.3860   -0.7610    0.3440 O   0  0  0  0  0  0  0  0  0  0  0  0
    0.6770   -0.2320   -0.3940 C   0  0  0  0  0  0  0  0  0  0  0  0
    1.8670   -0.8580   -0.1140 O   0  0  0  0  0  0  0  0  0  0  0  0
    2.8770   -0.3050   -0.8610 C   0  0  2  0  0  0  0  0  0  0  0  0
    3.5390   -1.2170   -1.6720 O   0  0  0  0  0  0  0  0  0  0  0  0
    3.8860    0.3090    0.0940 C   0  0  0  0  0  0  0  0  0  0  0  0
    4.3630   -0.7140    0.9050 O   0  0  0  0  0  0  0  0  0  0  0  0
  1  2  1  0
  2  3  1  0
  3  4  1  1
  3  5  1  0
  5  6  1  0
  6  7  1  0
  7  8  1  0
  8  9  1  0
  9 10  1  1
  9 11  1  0
 11 12  1  0
M  END
