
     RDKit          3D

 12 11  0  0  0  0  0  0  0  0999 V2000
   -5.1990   -0.1370    1.0810 O   0  0  0  0  0  0  0  0  0  0  0  0
   -3.9850    0.2220    0.4650 C   0  0  0  0  0  0  0  0  0  0  0  0
   -3.6220   -0.9160   -0.4460 C   0  0  0  0  0  0  0  0  0  0  0  0
   -2.4490   -0.6530   -1.1050 O   0  0  0  0  0  0  0  0  0  0  0  0
   -1.3990   -0.4830   -0.2590 C   0  0  0  0  0  0  0  0  0  0  0  0
   -0.2200   -0.2280   -1.0260 O   0  0  0  0  0  0  0  0  0  0  0  0
    0.7900   -0.0710   -0.0560 C   0  0  0  0  0  0  0  0  0  0  0  0
    2.1240    0.2110   -0.7210 C   0  0  0  0  0  0  0  0  0  0  0  0
    3.0590    0.3520    0.2960 O   0  0  0  0  0  0  0  0  0  0  0  0
    4.3340    0.6140   -0.1540 C   0  0  2  0  0  0  0  0  0  0  0  0
    5.1680   -0.4160    0.2910 O   0  0  0  0  0  0  0  0  0  0  0  0
    4.7860    1.8500    0.3220 O   0  0  0  0  0  0  0  0  0  0  0  0
  1  2  1  0
  2  3  1  0
  3  4  1  0
  4  5  1  0
  5  6  1  0
  6  7  1  0
  7  8  1  0
  8  9  1  0
  9 10  1  0
 10 11  1  1
 10 12  1  0
M  END
