
     RDKit          3D

 12 11  0  0  0  0  0  0  0  0999 V2000
    2.3590    0.6820    1.1790 O   0  0  0  0  0  0  0  0  0  0  0  0
    3.1700    0.5970    0.2320 C   0  0  0  0  0  0  0  0  0  0  0  0
    4.0220    1.6850    0.0150 O   0  0  0  0  0  0  0  0  0  0  0  0
    3.1790   -0.5350   -0.5250 O   0  0  0  0  0  0  0  0  0  0  0  0
    2.3790   -1.6670   -0.4100 C   0  0  0  0  0  0  0  0  0  0  0  0
    0.9540   -1.3480   -0.6720 C   0  0  0  0  0  0  0  0  0  0  0  0
    0.3530   -0.4240    0.1560 O   0  0  0  0  0  0  0  0  0  0  0  0
   -0.9670   -0.2860   -0.2720 C   0  0  0  0  0  0  0  0  0  0  0  0
   -1.7290    0.7100    0.5680 C   0  0  1  0  0  0  0  0  0  0  0  0
   -1.1440    1.9730    0.5150 O   0  0  0  0  0  0  0  0  0  0  0  0
   -3.1210    0.8270   -0.0250 C   0  0  0  0  0  0  0  0  0  0  0  0
   -3.6930   -0.4440    0.0350 O   0  0  0  0  0  0  0  0  0  0  0  0
  1  2  2  0
  2  3  1  0
  2  4  1  0
  4  5  1  0
  5  6  1  0
  6  7  1  0
  7  8  1  0
  8  9  1  0
  9 10  1  6
  9 11  1  0
 11 12  1  0
M  END
