
     RDKit          3D

 11 11  0  0  0  0  0  0  0  0999 V2000
    3.3430    0.1920   -0.8990 N   0  0  0  0  0  0  0  0  0  0  0  0
    1.9920    0.3460   -1.2940 C   0  0  0  0  0  0  0  0  0  0  0  0
    1.0340    0.1010   -0.4210 C   0  0  0  0  0  0  0  0  0  0  0  0
    1.3800   -0.3210    0.9240 C   0  0  0  0  0  0  0  0  0  0  0  0
    0.3840   -0.5780    1.7830 O   0  0  0  0  0  0  0  0  0  0  0  0
   -0.8890   -0.6280    1.3240 C   0  0  0  0  0  0  0  0  0  0  0  0
   -1.2130    0.4280    0.2890 C   0  0  2  0  0  0  0  0  0  0  0  0
   -2.6270    0.3160   -0.1180 C   0  0  0  0  0  0  0  0  0  0  0  0
   -3.0300    0.0520   -1.4550 N   0  0  0  0  0  0  0  0  0  0  0  0
   -3.5360    0.4570    0.7390 O   0  0  0  0  0  0  0  0  0  0  0  0
   -0.3230    0.2460   -0.7840 O   0  0  0  0  0  0  0  0  0  0  0  0
  1  2  1  0
  2  3  2  3
  3  4  1  0
  3 11  1  0
  4  5  1  0
  5  6  1  0
  6  7  1  0
  7  8  1  6
  7 11  1  0
  8  9  1  0
  8 10  2  0
M  END
