
     RDKit          3D

 11 11  0  0  0  0  0  0  0  0999 V2000
    4.2750   -0.0970   -0.4350 N   0  0  0  0  0  0  0  0  0  0  0  0
    3.0290    0.3450    0.0180 C   0  0  0  0  0  0  0  0  0  0  0  0
    2.9920    1.2240    0.9130 O   0  0  0  0  0  0  0  0  0  0  0  0
    1.7910   -0.1990   -0.5320 C   0  0  0  0  0  0  0  0  0  0  0  0
    1.8490   -1.0820   -1.4320 O   0  0  0  0  0  0  0  0  0  0  0  0
    0.5440    0.2100   -0.1120 O   0  0  0  0  0  0  0  0  0  0  0  0
   -0.6070   -0.3530   -0.6820 C   0  0  1  0  0  0  0  0  0  0  0  0
   -1.4390   -1.0060    0.4040 C   0  0  0  0  0  0  0  0  0  0  0  0
   -2.3500    0.1270    0.8160 C   0  0  0  0  0  0  0  0  0  0  0  0
   -2.6200    0.8000   -0.5150 C   0  0  0  0  0  0  0  0  0  0  0  0
   -1.4030    0.6830   -1.2660 N   0  0  0  0  0  0  0  0  0  0  0  0
  1  2  1  0
  2  3  2  0
  2  4  1  0
  4  5  2  0
  4  6  1  0
  7  6  1  1
  7  8  1  0
  7 11  1  0
  8  9  1  0
  9 10  1  0
 10 11  1  0
M  END
