
     RDKit          3D

 11 11  0  0  0  0  0  0  0  0999 V2000
    1.3820    0.1930    1.5650 C   0  0  0  0  0  0  0  0  0  0  0  0
    0.6110    0.2630    0.2410 C   0  0  1  0  0  0  0  0  0  0  0  0
    1.6930    0.4620   -0.8300 C   0  0  0  0  0  0  0  0  0  0  0  0
    2.4820   -0.7020   -0.7790 O   0  0  0  0  0  0  0  0  0  0  0  0
    0.0020   -1.0710    0.0110 C   0  0  0  0  0  0  0  0  0  0  0  0
   -1.1470   -1.3660    0.8070 N   0  0  0  0  0  0  0  0  0  0  0  0
   -2.2650   -0.8160    0.1700 N   0  0  0  0  0  0  0  0  0  0  0  0
   -2.2930    0.4280   -0.5190 C   0  0  0  0  0  0  0  0  0  0  0  0
   -3.3990    0.7100   -1.0270 O   0  0  0  0  0  0  0  0  0  0  0  0
   -1.1670    1.4150   -0.6970 C   0  0  0  0  0  0  0  0  0  0  0  0
   -0.2500    1.3120    0.3250 O   0  0  0  0  0  0  0  0  0  0  0  0
  2  1  1  1
  2  3  1  0
  2  5  1  0
  2 11  1  0
  3  4  1  0
  5  6  1  0
  6  7  1  0
  7  8  1  0
  8  9  2  0
  8 10  1  0
 10 11  1  0
M  END
