
     RDKit          3D

 16 17  0  0  0  0  0  0  0  0999 V2000
   -1.4810   -0.8830   -1.0870 C   0  0  0  0  0  0  0  0  0  0  0  0
   -2.0070    0.1240   -0.1110 C   0  0  2  0  0  0  0  0  0  0  0  0
   -2.3400    1.3780   -0.7700 N   0  0  0  0  0  0  0  0  0  0  0  0
   -1.0910    0.2990    1.0370 C   0  0  0  0  0  0  0  0  0  0  0  0
    0.2680    0.7620    0.7430 C   0  0  0  0  0  0  0  0  0  0  0  0
    0.6820    2.0970    0.8090 C   0  0  0  0  0  0  0  0  0  0  0  0
    1.9670    2.1590    0.4470 N   0  0  0  0  0  0  0  0  0  0  0  0
    2.4330    0.9320    0.1430 C   0  0  0  0  0  0  0  0  0  0  0  0
    3.6550    0.4500   -0.2650 C   0  0  0  0  0  0  0  0  0  0  0  0
    3.8760   -0.9030   -0.5030 C   0  0  0  0  0  0  0  0  0  0  0  0
    2.8320   -1.7720   -0.3200 C   0  0  0  0  0  0  0  0  0  0  0  0
    1.5960   -1.2730    0.0930 C   0  0  0  0  0  0  0  0  0  0  0  0
    1.3730    0.0630    0.3290 C   0  0  0  0  0  0  0  0  0  0  0  0
   -3.2860   -0.4580    0.4390 C   0  0  0  0  0  0  0  0  0  0  0  0
   -4.3870    0.1290    0.2910 O   0  0  0  0  0  0  0  0  0  0  0  0
   -3.1570   -1.6660    1.1090 O   0  0  0  0  0  0  0  0  0  0  0  0
  2  1  1  6
  2  3  1  0
  2  4  1  0
  2 14  1  0
  4  5  1  0
  5  6  2  0
  5 13  1  0
  6  7  1  0
  7  8  1  0
  8  9  2  0
  8 13  1  0
  9 10  1  0
 10 11  2  0
 11 12  1  0
 12 13  2  0
 14 15  2  0
 14 16  1  0
M  END
