
     RDKit          3D

 11 11  0  0  0  0  0  0  0  0999 V2000
   -0.6630    1.9650   -0.1010 C   0  0  0  0  0  0  0  0  0  0  0  0
   -0.4600    0.4520    0.0710 C   0  0  1  0  0  0  0  0  0  0  0  0
   -1.8330   -0.1380    0.0060 C   0  0  0  0  0  0  0  0  0  0  0  0
   -2.1160   -1.4430   -0.4610 N   0  0  0  0  0  0  0  0  0  0  0  0
   -2.8280    0.5240    0.4300 O   0  0  0  0  0  0  0  0  0  0  0  0
    0.3720    0.0470   -1.0300 N   0  0  0  0  0  0  0  0  0  0  0  0
    1.3530   -0.9510   -0.6480 C   0  0  0  0  0  0  0  0  0  0  0  0
    2.2620   -0.4950    0.4740 C   0  0  0  0  0  0  0  0  0  0  0  0
    1.4710    0.0120    1.5290 O   0  0  0  0  0  0  0  0  0  0  0  0
    0.1080    0.1430    1.3990 C   0  0  0  0  0  0  0  0  0  0  0  0
   -0.6400   -0.0700    2.3980 O   0  0  0  0  0  0  0  0  0  0  0  0
  2  1  1  1
  2  3  1  0
  2  6  1  0
  2 10  1  0
  3  4  1  0
  3  5  2  0
  6  7  1  0
  7  8  1  0
  8  9  1  0
  9 10  1  0
 10 11  2  0
M  END
