
     RDKit          3D

 11 11  0  0  0  0  0  0  0  0999 V2000
   -2.6270    0.1070   -0.9140 C   0  0  0  0  0  0  0  0  0  0  0  0
   -1.3310    0.1780   -0.1480 C   0  0  1  0  0  0  0  0  0  0  0  0
   -1.3010   -0.8060    1.0060 C   0  0  0  0  0  0  0  0  0  0  0  0
    0.1550   -0.8680    1.2490 C   0  0  0  0  0  0  0  0  0  0  0  0
    0.7030   -1.1260    2.2790 O   0  0  0  0  0  0  0  0  0  0  0  0
    0.7750   -0.5440   -0.0510 C   0  0  2  0  0  0  0  0  0  0  0  0
    1.7290    0.5640   -0.0040 C   0  0  0  0  0  0  0  0  0  0  0  0
    1.2830    1.8420    0.4200 N   0  0  0  0  0  0  0  0  0  0  0  0
    2.9590    0.4160   -0.3350 N   0  0  0  0  0  0  0  0  0  0  0  0
    3.4420   -0.8050   -0.7530 O   0  0  0  0  0  0  0  0  0  0  0  0
   -0.2720   -0.2990   -0.9370 O   0  0  0  0  0  0  0  0  0  0  0  0
  2  1  1  6
  2  3  1  0
  2 11  1  0
  3  4  1  0
  4  5  2  0
  4  6  1  0
  6  7  1  1
  6 11  1  0
  7  8  1  0
  7  9  2  3
  9 10  1  0
M  END
