
     RDKit          3D

 11 10  0  0  0  0  0  0  0  0999 V2000
   -0.6150    0.7270   -1.1180 C   0  0  0  0  0  0  0  0  0  0  0  0
   -0.1670    0.1320    0.2050 C   0  0  1  0  0  0  0  0  0  0  0  0
   -0.4340    1.1440    1.2940 C   0  0  0  0  0  0  0  0  0  0  0  0
    0.2490    2.3190    0.8980 O   0  0  0  0  0  0  0  0  0  0  0  0
   -0.7660   -1.0750    0.4450 O   0  0  0  0  0  0  0  0  0  0  0  0
   -2.1450   -1.0160    0.5020 C   0  0  0  0  0  0  0  0  0  0  0  0
   -2.6780   -2.2980    0.7510 O   0  0  0  0  0  0  0  0  0  0  0  0
    1.3320   -0.0630    0.1420 C   0  0  2  0  0  0  0  0  0  0  0  0
    1.9070    1.1700   -0.1010 O   0  0  0  0  0  0  0  0  0  0  0  0
    1.7210   -1.0250   -0.9570 C   0  0  0  0  0  0  0  0  0  0  0  0
    3.1040   -1.1380   -0.9680 O   0  0  0  0  0  0  0  0  0  0  0  0
  2  1  1  6
  2  3  1  0
  2  5  1  0
  2  8  1  0
  3  4  1  0
  5  6  1  0
  6  7  1  0
  8  9  1  6
  8 10  1  0
 10 11  1  0
M  END
