
     RDKit          3D

 11 10  0  0  0  0  0  0  0  0999 V2000
   -0.5790   -1.6530   -0.5880 C   0  0  0  0  0  0  0  0  0  0  0  0
   -0.4520   -0.2300   -0.2290 C   0  0  2  0  0  0  0  0  0  0  0  0
   -0.8010   -0.0250    1.2520 C   0  0  0  0  0  0  0  0  0  0  0  0
   -2.1060   -0.4290    1.5190 O   0  0  0  0  0  0  0  0  0  0  0  0
   -1.5550    0.5240   -0.9980 C   0  0  0  0  0  0  0  0  0  0  0  0
   -1.4910    1.8770   -0.7030 O   0  0  0  0  0  0  0  0  0  0  0  0
    0.8060    0.4560   -0.5530 C   0  0  1  0  0  0  0  0  0  0  0  0
    0.7050    1.7850   -0.1270 O   0  0  0  0  0  0  0  0  0  0  0  0
    2.0650   -0.0860    0.0280 C   0  0  2  0  0  0  0  0  0  0  0  0
    2.3390   -1.3940   -0.2820 O   0  0  0  0  0  0  0  0  0  0  0  0
    2.1810    0.0870    1.3960 O   0  0  0  0  0  0  0  0  0  0  0  0
  2  1  1  6
  2  3  1  0
  2  5  1  0
  2  7  1  0
  3  4  1  0
  5  6  1  0
  7  8  1  1
  7  9  1  0
  9 10  1  1
  9 11  1  0
M  END
