
     RDKit          3D

 11 11  0  0  0  0  0  0  0  0999 V2000
   -4.1120    0.2230    0.3790 C   0  0  0  0  0  0  0  0  0  0  0  0
   -2.8880   -0.4200    0.2160 O   0  0  0  0  0  0  0  0  0  0  0  0
   -1.8250    0.3770    0.6410 C   0  0  0  0  0  0  0  0  0  0  0  0
   -0.5670   -0.4020    0.4240 C   0  0  1  0  0  0  0  0  0  0  0  0
   -0.4730   -0.6870   -0.9360 O   0  0  0  0  0  0  0  0  0  0  0  0
    0.8120   -0.3250   -1.3350 C   0  0  0  0  0  0  0  0  0  0  0  0
    1.5330   -0.3820   -0.0030 C   0  0  1  0  0  0  0  0  0  0  0  0
    2.8430    0.3400   -0.0660 C   0  0  1  0  0  0  0  0  0  0  0  0
    3.4490    0.5010    1.1520 O   0  0  0  0  0  0  0  0  0  0  0  0
    3.6960   -0.4140   -0.8730 O   0  0  0  0  0  0  0  0  0  0  0  0
    0.5840    0.2660    0.7900 O   0  0  0  0  0  0  0  0  0  0  0  0
  1  2  1  0
  2  3  1  0
  4  3  1  6
  4  5  1  0
  4 11  1  0
  5  6  1  0
  7  6  1  6
  7  8  1  0
  7 11  1  0
  8  9  1  1
  8 10  1  0
M  END
