
     RDKit          3D

 11 10  0  0  0  0  0  0  0  0999 V2000
    2.7870   -1.3580    0.6310 C   0  0  0  0  0  0  0  0  0  0  0  0
    1.5820   -0.9720    0.0550 O   0  0  0  0  0  0  0  0  0  0  0  0
    1.2760    0.3610    0.3290 C   0  0  0  0  0  0  0  0  0  0  0  0
   -0.0350    0.6510   -0.3430 C   0  0  2  0  0  0  0  0  0  0  0  0
    0.1240    0.4350   -1.7100 O   0  0  0  0  0  0  0  0  0  0  0  0
   -0.4820    2.0790   -0.1610 C   0  0  0  0  0  0  0  0  0  0  0  0
   -0.6770    2.4250    1.1560 O   0  0  0  0  0  0  0  0  0  0  0  0
   -1.0530   -0.3330    0.1730 C   0  0  1  0  0  0  0  0  0  0  0  0
   -1.1820   -0.0800    1.5570 O   0  0  0  0  0  0  0  0  0  0  0  0
   -2.2650   -0.1870   -0.4770 O   0  0  0  0  0  0  0  0  0  0  0  0
   -2.6360   -1.3260   -1.1690 C   0  0  0  0  0  0  0  0  0  0  0  0
  1  2  1  0
  2  3  1  0
  3  4  1  0
  4  5  1  6
  4  6  1  0
  4  8  1  0
  6  7  1  0
  8  9  1  1
  8 10  1  0
 10 11  1  0
M  END
