
     RDKit          3D

 20 22  0  0  0  0  0  0  0  0999 V2000
   -1.8540   -3.2860   -1.2130 N   0  0  0  0  0  0  0  0  0  0  0  0
   -0.6950   -2.4400   -1.0380 C   0  0  0  0  0  0  0  0  0  0  0  0
   -1.0870   -1.2660   -0.2050 C   0  0  2  0  0  0  0  0  0  0  0  0
   -2.1690   -0.4780   -0.8410 C   0  0  0  0  0  0  0  0  0  0  0  0
   -2.7590   -0.8150   -1.8870 O   0  0  0  0  0  0  0  0  0  0  0  0
   -2.5590    0.7690   -0.1920 C   0  0  0  0  0  0  0  0  0  0  0  0
   -1.7410    1.2990    0.7100 C   0  0  0  0  0  0  0  0  0  0  0  0
   -2.0820    2.5250    1.3750 N   0  0  0  0  0  0  0  0  0  0  0  0
   -3.2710    3.1790    1.0880 N   0  0  0  0  0  0  0  0  0  0  0  0
   -4.1650    2.6310    0.1240 C   0  0  0  0  0  0  0  0  0  0  0  0
   -5.2560    3.1870   -0.1710 O   0  0  0  0  0  0  0  0  0  0  0  0
   -3.7840    1.4210   -0.5040 N   0  0  0  0  0  0  0  0  0  0  0  0
   -0.5120    0.6560    1.0320 N   0  0  0  0  0  0  0  0  0  0  0  0
    0.0220   -0.2870    0.0750 C   0  0  1  0  0  0  0  0  0  0  0  0
    1.2340   -0.9480    0.6310 C   0  0  0  0  0  0  0  0  0  0  0  0
    2.3550    0.0180    0.9230 C   0  0  2  0  0  0  0  0  0  0  0  0
    2.8340    0.7640   -0.2640 C   0  0  0  0  0  0  0  0  0  0  0  0
    4.3070    1.0350   -0.1090 C   0  0  0  0  0  0  0  0  0  0  0  0
    4.9910   -0.2830    0.1410 C   0  0  0  0  0  0  0  0  0  0  0  0
    3.8170   -1.0080    1.3550 S   0  0  0  0  0  0  0  0  0  0  0  0
  1  2  1  0
  3  2  1  6
  3  4  1  0
  3 14  1  0
  4  5  2  0
  4  6  1  0
  6  7  2  0
  6 12  1  0
  7  8  1  0
  7 13  1  0
  8  9  1  0
  9 10  1  0
 10 11  2  0
 10 12  1  0
 13 14  1  0
 14 15  1  1
 16 15  1  6
 16 17  1  0
 16 20  1  0
 17 18  1  0
 18 19  1  0
 19 20  1  0
M  CHG  1   1   1
M  END
