
     RDKit          3D

 12 11  0  0  0  0  0  0  0  0999 V2000
   -2.0890    0.8740   -0.9400 C   0  0  0  0  0  0  0  0  0  0  0  0
   -1.5560    0.2390    0.3260 C   0  0  1  0  0  0  0  0  0  0  0  0
   -1.0330    1.3160    1.2080 C   0  0  0  0  0  0  0  0  0  0  0  0
   -2.6370   -0.3650    0.9900 O   0  0  0  0  0  0  0  0  0  0  0  0
   -0.5800   -0.8400   -0.0060 C   0  0  1  0  0  0  0  0  0  0  0  0
   -1.2630   -1.7590   -0.8370 O   0  0  0  0  0  0  0  0  0  0  0  0
    0.5420   -0.4250   -0.6790 O   0  0  0  0  0  0  0  0  0  0  0  0
    1.7360   -0.8140   -0.1180 C   0  0  1  0  0  0  0  0  0  0  0  0
    2.4770   -1.6450   -0.9580 O   0  0  0  0  0  0  0  0  0  0  0  0
    2.6120    0.3010    0.2870 C   0  0  0  0  0  0  0  0  0  0  0  0
    2.2090    1.2150    1.0530 O   0  0  0  0  0  0  0  0  0  0  0  0
    3.9380    0.4170   -0.1500 O   0  0  0  0  0  0  0  0  0  0  0  0
  2  1  1  6
  2  3  1  0
  2  4  1  0
  2  5  1  0
  5  6  1  6
  5  7  1  0
  7  8  1  0
  8  9  1  6
  8 10  1  0
 10 11  2  0
 10 12  1  0
M  END
