
     RDKit          3D

 12 11  0  0  0  0  0  0  0  0999 V2000
    3.4770    1.3900   -0.2660 C   0  0  0  0  0  0  0  0  0  0  0  0
    2.2230    0.8050   -0.4490 O   0  0  0  0  0  0  0  0  0  0  0  0
    2.1450   -0.2680    0.3870 C   0  0  0  0  0  0  0  0  0  0  0  0
    0.8650   -1.0570    0.3560 C   0  0  1  0  0  0  0  0  0  0  0  0
    1.1310   -2.0800    1.3120 O   0  0  0  0  0  0  0  0  0  0  0  0
   -0.1740   -0.2870    0.6870 O   0  0  0  0  0  0  0  0  0  0  0  0
   -1.2740   -0.1270   -0.0320 C   0  0  2  0  0  0  0  0  0  0  0  0
   -1.4920    1.3000   -0.4530 C   0  0  0  0  0  0  0  0  0  0  0  0
   -0.5110    1.8470   -1.2410 O   0  0  0  0  0  0  0  0  0  0  0  0
   -2.5700   -0.6410    0.5370 C   0  0  1  0  0  0  0  0  0  0  0  0
   -3.5650   -0.3530   -0.4030 O   0  0  0  0  0  0  0  0  0  0  0  0
   -2.4850   -2.0380    0.5950 O   0  0  0  0  0  0  0  0  0  0  0  0
  1  2  1  0
  2  3  1  0
  3  4  1  0
  4  5  1  1
  4  6  1  0
  6  7  1  0
  7  8  1  1
  7 10  1  0
  8  9  1  0
 10 11  1  6
 10 12  1  0
M  END
