
     RDKit          3D

 12 12  0  0  0  0  0  0  0  0999 V2000
    3.3330    1.2170   -0.2360 O   0  0  0  0  0  0  0  0  0  0  0  0
    2.5660    0.0710   -0.1380 C   0  0  0  0  0  0  0  0  0  0  0  0
    1.1160    0.3400    0.1040 C   0  0  1  0  0  0  0  0  0  0  0  0
    0.5770    1.0860   -0.9170 O   0  0  0  0  0  0  0  0  0  0  0  0
   -0.7570    1.3070   -0.8670 C   0  0  1  0  0  0  0  0  0  0  0  0
   -1.1920    1.5200   -2.1990 O   0  0  0  0  0  0  0  0  0  0  0  0
   -1.6220    0.2970   -0.2560 C   0  0  2  0  0  0  0  0  0  0  0  0
   -2.6400    0.9310    0.4970 O   0  0  0  0  0  0  0  0  0  0  0  0
   -0.9710   -0.6970    0.6420 C   0  0  1  0  0  0  0  0  0  0  0  0
   -1.7500   -1.8410    0.7890 O   0  0  0  0  0  0  0  0  0  0  0  0
    0.3960   -1.0120    0.0730 C   0  0  2  0  0  0  0  0  0  0  0  0
    1.0820   -1.9590    0.8180 O   0  0  0  0  0  0  0  0  0  0  0  0
  1  2  1  0
  3  2  1  6
  3  4  1  0
  3 11  1  0
  4  5  1  0
  5  6  1  6
  5  7  1  0
  7  8  1  1
  7  9  1  0
  9 10  1  6
  9 11  1  0
 11 12  1  1
M  END
