
     RDKit          3D

 11 11  0  0  0  0  0  0  0  0999 V2000
   -2.2200    1.8430    0.1260 O   0  0  0  0  0  0  0  0  0  0  0  0
   -2.4680    0.5950   -0.4250 C   0  0  0  0  0  0  0  0  0  0  0  0
   -1.3100   -0.3600   -0.1240 C   0  0  1  0  0  0  0  0  0  0  0  0
   -1.5940   -1.5890   -0.6870 O   0  0  0  0  0  0  0  0  0  0  0  0
   -0.0750    0.2710   -0.7320 C   0  0  0  0  0  0  0  0  0  0  0  0
    1.1550   -0.5760   -0.5060 C   0  0  2  0  0  0  0  0  0  0  0  0
    0.9460   -1.8250   -1.0990 O   0  0  0  0  0  0  0  0  0  0  0  0
    1.4870   -0.7230    0.9560 C   0  0  0  0  0  0  0  0  0  0  0  0
    2.7260   -0.1040    1.0930 O   0  0  0  0  0  0  0  0  0  0  0  0
    2.8020    0.7510   -0.0010 C   0  0  0  0  0  0  0  0  0  0  0  0
    2.2340    0.0800   -1.0810 O   0  0  0  0  0  0  0  0  0  0  0  0
  1  2  1  0
  2  3  1  0
  3  4  1  6
  3  5  1  0
  5  6  1  0
  6  7  1  6
  6  8  1  0
  6 11  1  0
  8  9  1  0
  9 10  1  0
 10 11  1  0
M  END
