
     RDKit          3D

 27 29  0  0  0  0  0  0  0  0999 V2000
   -7.1190    1.8720   -0.2710 N   0  0  0  0  0  0  0  0  0  0  0  0
   -5.9830    1.3450    0.4030 C   0  0  0  0  0  0  0  0  0  0  0  0
   -5.9240    1.3600    1.7470 N   0  0  0  0  0  0  0  0  0  0  0  0
   -4.8450    0.8600    2.3990 C   0  0  0  0  0  0  0  0  0  0  0  0
   -3.7900    0.3290    1.7600 N   0  0  0  0  0  0  0  0  0  0  0  0
   -3.8000    0.2890    0.3990 C   0  0  0  0  0  0  0  0  0  0  0  0
   -4.9060    0.8020   -0.2680 C   0  0  0  0  0  0  0  0  0  0  0  0
   -4.6440    0.6320   -1.5680 N   0  0  0  0  0  0  0  0  0  0  0  0
   -3.4380    0.0440   -1.6970 C   0  0  0  0  0  0  0  0  0  0  0  0
   -2.9030   -0.1740   -0.4770 N   0  0  0  0  0  0  0  0  0  0  0  0
   -1.6490   -0.7700   -0.1430 C   0  0  2  0  0  0  0  0  0  0  0  0
   -0.7260    0.1680    0.3660 O   0  0  0  0  0  0  0  0  0  0  0  0
    0.4810   -0.5200    0.3790 C   0  0  2  0  0  0  0  0  0  0  0  0
    1.6780    0.3850    0.3080 C   0  0  0  0  0  0  0  0  0  0  0  0
    2.8140   -0.4220    0.3300 O   0  0  0  0  0  0  0  0  0  0  0  0
    4.2320    0.4930    0.2540 P   0  0  2  0  0  0  0  0  0  0  0  0
    3.9290    1.9170   -0.1960 O   0  0  0  0  0  0  0  0  0  0  0  0
    5.3240   -0.1460   -0.8630 O   0  0  0  0  0  0  0  0  0  0  0  0
    5.0040    0.5680    1.7530 O   0  0  0  0  0  0  0  0  0  0  0  0
    6.6640    0.7100    1.4650 P   0  0  2  0  0  0  0  0  0  0  0  0
    7.3180    1.6090    2.4760 O   0  0  0  0  0  0  0  0  0  0  0  0
    6.9000    1.3410   -0.1010 O   0  0  0  0  0  0  0  0  0  0  0  0
    7.4000   -0.8210    1.5830 O   0  0  0  0  0  0  0  0  0  0  0  0
    0.4860   -1.4290   -0.8140 C   0  0  1  0  0  0  0  0  0  0  0  0
    0.6660   -2.7510   -0.3730 O   0  0  0  0  0  0  0  0  0  0  0  0
   -0.9080   -1.2400   -1.3790 C   0  0  1  0  0  0  0  0  0  0  0  0
   -1.4330   -2.4300   -1.8720 O   0  0  0  0  0  0  0  0  0  0  0  0
  1  2  1  0
  2  3  2  0
  2  7  1  0
  3  4  1  0
  4  5  2  0
  5  6  1  0
  6  7  2  0
  6 10  1  0
  7  8  1  0
  8  9  2  0
  9 10  1  0
 11 10  1  6
 11 12  1  0
 11 26  1  0
 12 13  1  0
 13 14  1  6
 13 24  1  0
 14 15  1  0
 15 16  1  0
 16 17  2  0
 16 18  1  6
 16 19  1  0
 19 20  1  0
 20 21  2  0
 20 22  1  6
 20 23  1  0
 24 25  1  1
 24 26  1  0
 26 27  1  1
M  END
