
     RDKit          3D

 27 28  0  0  0  0  0  0  0  0999 V2000
    4.8690    2.4120   -2.2610 O   0  0  0  0  0  0  0  0  0  0  0  0
    5.7730    2.7490   -1.4670 C   0  0  0  0  0  0  0  0  0  0  0  0
    5.4240    3.1670   -0.2050 O   0  0  0  0  0  0  0  0  0  0  0  0
    4.0650    3.2040    0.1630 C   0  0  0  0  0  0  0  0  0  0  0  0
    3.3740    1.8760    0.1220 C   0  0  0  0  0  0  0  0  0  0  0  0
    1.9450    2.0810    0.5360 C   0  0  0  0  0  0  0  0  0  0  0  0
    1.1600    0.9010    0.5450 N   0  0  0  0  0  0  0  0  0  0  0  0
    1.0740    0.0880    1.7560 C   0  0  0  0  0  0  0  0  0  0  0  0
    1.7280    0.4470    2.7620 O   0  0  0  0  0  0  0  0  0  0  0  0
    0.2530   -1.1090    1.8180 N   0  0  0  0  0  0  0  0  0  0  0  0
    0.3750   -2.2570    0.9700 C   0  0  0  0  0  0  0  0  0  0  0  0
   -0.9410   -2.8940    0.5600 C   0  0  0  0  0  0  0  0  0  0  0  0
   -1.0930   -2.9590   -0.7970 O   0  0  0  0  0  0  0  0  0  0  0  0
   -2.3830   -3.0710   -1.2690 C   0  0  0  0  0  0  0  0  0  0  0  0
   -2.4760   -2.3340   -2.6780 C   0  0  0  0  0  0  0  0  0  0  0  0
   -1.0890   -1.7910   -2.8390 C   0  0  0  0  0  0  0  0  0  0  0  0
   -0.5170   -0.9000   -2.0240 C   0  0  0  0  0  0  0  0  0  0  0  0
    0.7640   -0.6640   -2.4360 O   0  0  0  0  0  0  0  0  0  0  0  0
    1.3710    0.1100   -1.6860 N   0  0  0  0  0  0  0  0  0  0  0  0
    0.4650    0.4430   -0.6850 C   0  0  0  0  0  0  0  0  0  0  0  0
   -0.7680   -0.1380   -0.8650 C   0  0  0  0  0  0  0  0  0  0  0  0
   -1.9820    0.0880   -0.2760 C   0  0  0  0  0  0  0  0  0  0  0  0
   -2.5680    0.7660    0.8120 C   0  0  0  0  0  0  0  0  0  0  0  0
   -2.1410    1.5860    1.6820 C   0  0  0  0  0  0  0  0  0  0  0  0
   -0.9590    2.1630    1.9370 O   0  0  0  0  0  0  0  0  0  0  0  0
   -4.1060    0.4260    1.0070 C   0  0  0  0  0  0  0  0  0  0  0  0
   -4.2220   -0.9270    1.2220 O   0  0  0  0  0  0  0  0  0  0  0  0
  1  2  2  0
  2  3  1  0
  3  4  1  0
  4  5  1  0
  5  6  1  0
  6  7  1  0
  7  8  1  0
  7 20  1  0
  8  9  2  0
  8 10  1  0
 10 11  1  0
 11 12  1  0
 12 13  1  0
 13 14  1  0
 14 15  1  0
 15 16  1  0
 16 17  2  0
 17 18  1  0
 17 21  1  0
 18 19  1  0
 19 20  2  0
 20 21  1  0
 21 22  2  3
 22 23  1  0
 23 24  2  3
 23 26  1  0
 24 25  1  0
 26 27  1  0
M  END
