
     RDKit          3D

 27 28  0  0  0  0  0  0  0  0999 V2000
    7.5080    1.8820    0.4240 C   0  0  0  0  0  0  0  0  0  0  0  0
    6.4400    1.6550   -0.5420 N   0  0  0  0  0  0  0  0  0  0  0  0
    5.1510    1.2140   -0.1470 C   0  0  0  0  0  0  0  0  0  0  0  0
    4.9720    1.0250    1.0900 O   0  0  0  0  0  0  0  0  0  0  0  0
    4.0590    0.9840   -1.1400 C   0  0  0  0  0  0  0  0  0  0  0  0
    2.8070    0.5150   -0.3930 C   0  0  0  0  0  0  0  0  0  0  0  0
    1.7440    0.3020   -1.4250 C   0  0  0  0  0  0  0  0  0  0  0  0
    0.4770   -0.1420   -0.9090 N   0  0  0  0  0  0  0  0  0  0  0  0
   -0.5430    0.7740   -0.5080 C   0  0  0  0  0  0  0  0  0  0  0  0
   -0.3670    2.0080   -0.5760 O   0  0  0  0  0  0  0  0  0  0  0  0
   -1.7930    0.2530   -0.0200 N   0  0  0  0  0  0  0  0  0  0  0  0
   -2.8500    1.0660    0.3850 C   0  0  0  0  0  0  0  0  0  0  0  0
   -2.5290    2.3270    0.2700 O   0  0  0  0  0  0  0  0  0  0  0  0
   -4.1680    0.8080    0.8820 C   0  0  0  0  0  0  0  0  0  0  0  0
   -4.8700    1.9550    1.1580 C   0  0  0  0  0  0  0  0  0  0  0  0
   -6.2150    1.9590    1.6680 C   0  0  0  0  0  0  0  0  0  0  0  0
   -6.8240    0.8180    1.8870 C   0  0  0  0  0  0  0  0  0  0  0  0
   -6.1790   -0.3550    1.6310 O   0  0  0  0  0  0  0  0  0  0  0  0
   -4.8400   -0.4210    1.1230 C   0  0  0  0  0  0  0  0  0  0  0  0
   -4.3480   -1.5980    0.9240 C   0  0  0  0  0  0  0  0  0  0  0  0
   -3.2280   -2.1900    0.4940 O   0  0  0  0  0  0  0  0  0  0  0  0
   -3.2100   -3.1150   -0.4970 O   0  0  0  0  0  0  0  0  0  0  0  0
    0.2560   -1.5370   -0.8110 C   0  0  0  0  0  0  0  0  0  0  0  0
    0.2360   -2.3130    0.3170 C   0  0  0  0  0  0  0  0  0  0  0  0
   -0.0180   -3.6260   -0.0750 C   0  0  0  0  0  0  0  0  0  0  0  0
   -0.1380   -3.5640   -1.4460 C   0  0  0  0  0  0  0  0  0  0  0  0
    0.0300   -2.3250   -1.8260 O   0  0  0  0  0  0  0  0  0  0  0  0
  1  2  1  0
  2  3  1  0
  3  4  2  0
  3  5  1  0
  5  6  1  0
  6  7  1  0
  7  8  1  0
  8  9  1  0
  8 23  1  0
  9 10  2  0
  9 11  1  0
 11 12  1  0
 12 13  2  0
 12 14  1  0
 14 15  2  0
 14 19  1  0
 15 16  1  0
 16 17  2  0
 17 18  1  0
 18 19  1  0
 19 20  2  3
 20 21  1  0
 21 22  1  0
 23 24  2  0
 23 27  1  0
 24 25  1  0
 25 26  2  0
 26 27  1  0
M  END
