
     RDKit          3D

 27 27  0  0  0  0  0  0  0  0999 V2000
   -4.3110   -2.5820   -3.9180 C   0  0  0  0  0  0  0  0  0  0  0  0
   -3.5030   -1.7150   -3.1660 O   0  0  0  0  0  0  0  0  0  0  0  0
   -3.5740   -1.5920   -1.8130 C   0  0  0  0  0  0  0  0  0  0  0  0
   -4.4380   -2.3320   -1.2730 O   0  0  0  0  0  0  0  0  0  0  0  0
   -2.7110   -0.6600   -0.9910 C   0  0  0  0  0  0  0  0  0  0  0  0
   -2.9240   -0.6630    0.3000 C   0  0  0  0  0  0  0  0  0  0  0  0
   -2.3950    0.0110    1.4390 C   0  0  0  0  0  0  0  0  0  0  0  0
   -2.6470   -0.7200    2.6860 O   0  0  0  0  0  0  0  0  0  0  0  0
   -3.5690   -0.0880    3.4320 O   0  0  0  0  0  0  0  0  0  0  0  0
   -1.7380    1.1190    1.6440 C   0  0  0  0  0  0  0  0  0  0  0  0
   -1.2310    2.1750    0.8180 C   0  0  0  0  0  0  0  0  0  0  0  0
   -0.0360    2.5150    0.4040 C   0  0  0  0  0  0  0  0  0  0  0  0
    1.2780    1.9250    0.6450 C   0  0  0  0  0  0  0  0  0  0  0  0
    2.3010    2.7770    0.6380 C   0  0  0  0  0  0  0  0  0  0  0  0
    2.2370    4.2250    0.4150 C   0  0  0  0  0  0  0  0  0  0  0  0
    3.0160    4.5190   -0.7250 O   0  0  0  0  0  0  0  0  0  0  0  0
    1.5640    0.5800    0.9110 N   0  0  0  0  0  0  0  0  0  0  0  0
    1.0590   -0.6080    0.2570 C   0  0  0  0  0  0  0  0  0  0  0  0
    1.5160   -1.9520    0.8420 C   0  0  2  0  0  0  0  0  0  0  0  0
    1.0610   -2.0110    2.2230 N   0  0  0  0  0  0  0  0  0  0  0  0
    2.9980   -2.0040    0.8700 C   0  0  0  0  0  0  0  0  0  0  0  0
    3.6360   -2.0840    1.9460 O   0  0  0  0  0  0  0  0  0  0  0  0
    3.7200   -1.9650   -0.3120 O   0  0  0  0  0  0  0  0  0  0  0  0
    5.1290   -2.0170   -0.2490 C   0  0  0  0  0  0  0  0  0  0  0  0
    0.2950   -0.6290   -0.7170 N   0  0  0  0  0  0  0  0  0  0  0  0
   -0.4100    0.1220   -1.6060 C   0  0  0  0  0  0  0  0  0  0  0  0
   -1.7470    0.1240   -1.7440 C   0  0  0  0  0  0  0  0  0  0  0  0
  1  2  1  0
  2  3  1  0
  3  4  2  0
  3  5  1  0
  5  6  2  0
  5 27  1  0
  6  7  1  0
  7  8  1  0
  7 10  2  0
  8  9  1  0
 10 11  1  0
 11 12  2  0
 12 13  1  0
 13 14  2  3
 13 17  1  0
 14 15  1  0
 15 16  1  0
 17 18  1  0
 18 19  1  0
 18 25  2  0
 19 20  1  1
 19 21  1  0
 21 22  2  0
 21 23  1  0
 23 24  1  0
 25 26  1  0
 26 27  2  0
M  END
