
     RDKit          3D

 27 28  0  0  0  0  0  0  0  0999 V2000
    3.2290    1.2600   -1.9480 C   0  0  0  0  0  0  0  0  0  0  0  0
    3.6550    0.4330   -0.7340 C   0  0  1  0  0  0  0  0  0  0  0  0
    4.7130    1.2090   -0.0250 C   0  0  0  0  0  0  0  0  0  0  0  0
    5.3720    0.5360    1.0370 N   0  0  0  0  0  0  0  0  0  0  0  0
    6.2090   -0.5550    0.6980 C   0  0  0  0  0  0  0  0  0  0  0  0
    7.4240   -0.0820   -0.0440 C   0  0  0  0  0  0  0  0  0  0  0  0
    8.1750    0.8150    0.7270 O   0  0  0  0  0  0  0  0  0  0  0  0
    9.2110    1.1710   -0.0060 O   0  0  0  0  0  0  0  0  0  0  0  0
    2.6030    0.0030    0.0050 O   0  0  0  0  0  0  0  0  0  0  0  0
    2.4190   -1.3670    0.0360 C   0  0  0  0  0  0  0  0  0  0  0  0
    1.2450   -1.7950    0.8510 C   0  0  0  0  0  0  0  0  0  0  0  0
    0.0160   -1.1650    0.2500 C   0  0  0  0  0  0  0  0  0  0  0  0
    0.0910   -0.4220   -0.7440 O   0  0  0  0  0  0  0  0  0  0  0  0
   -1.1780   -1.4350    0.8280 O   0  0  0  0  0  0  0  0  0  0  0  0
   -2.4070   -0.9830    0.4640 C   0  0  0  0  0  0  0  0  0  0  0  0
   -2.7250   -0.1800   -0.5240 C   0  0  0  0  0  0  0  0  0  0  0  0
   -4.0720    0.1880   -0.7580 O   0  0  0  0  0  0  0  0  0  0  0  0
   -5.1190   -0.2660    0.0220 C   0  0  0  0  0  0  0  0  0  0  0  0
   -6.4900    0.1600   -0.2830 C   0  0  0  0  0  0  0  0  0  0  0  0
   -7.5270   -0.2910    0.4950 C   0  0  0  0  0  0  0  0  0  0  0  0
   -8.7960    0.1390    0.1670 C   0  0  0  0  0  0  0  0  0  0  0  0
   -9.0470    0.9910   -0.8990 C   0  0  0  0  0  0  0  0  0  0  0  0
  -10.3280    1.4160   -1.2180 O   0  0  0  0  0  0  0  0  0  0  0  0
   -7.9900    1.4400   -1.6780 C   0  0  0  0  0  0  0  0  0  0  0  0
   -6.7290    0.9960   -1.3300 C   0  0  0  0  0  0  0  0  0  0  0  0
   -4.8450   -1.0490    0.9910 N   0  0  0  0  0  0  0  0  0  0  0  0
   -3.5310   -1.4370    1.2560 N   0  0  0  0  0  0  0  0  0  0  0  0
  2  1  1  6
  2  3  1  0
  2  9  1  0
  3  4  1  0
  4  5  1  0
  5  6  1  0
  6  7  1  0
  7  8  1  0
  9 10  1  0
 10 11  1  0
 11 12  1  0
 12 13  2  0
 12 14  1  0
 14 15  1  0
 15 16  2  0
 15 27  1  0
 16 17  1  0
 17 18  1  0
 18 19  1  0
 18 26  2  0
 19 20  2  0
 19 25  1  0
 20 21  1  0
 21 22  2  0
 22 23  1  0
 22 24  1  0
 24 25  2  0
 26 27  1  0
M  END
