
     RDKit          3D

 27 28  0  0  0  0  0  0  0  0999 V2000
   -0.2280   -3.1690   -0.7570 O   0  0  0  0  0  0  0  0  0  0  0  0
   -0.7710   -3.3530    0.3710 C   0  0  0  0  0  0  0  0  0  0  0  0
   -1.8000   -2.4480    0.7450 N   0  0  0  0  0  0  0  0  0  0  0  0
   -2.1920   -1.3630   -0.1530 C   0  0  1  0  0  0  0  0  0  0  0  0
   -3.6430   -1.4450   -0.4920 C   0  0  0  0  0  0  0  0  0  0  0  0
   -3.9400   -2.6530   -1.1390 O   0  0  0  0  0  0  0  0  0  0  0  0
   -1.9290   -0.0370    0.5140 C   0  0  0  0  0  0  0  0  0  0  0  0
   -2.1480    0.0020    1.7430 O   0  0  0  0  0  0  0  0  0  0  0  0
   -1.4670    1.0980   -0.1690 N   0  0  0  0  0  0  0  0  0  0  0  0
   -1.2890    0.9310   -1.6470 C   0  0  0  0  0  0  0  0  0  0  0  0
    0.0920    0.4450   -1.9310 C   0  0  0  0  0  0  0  0  0  0  0  0
    0.4190    0.2440   -3.1180 O   0  0  0  0  0  0  0  0  0  0  0  0
    1.0410    0.2030   -0.9250 N   0  0  0  0  0  0  0  0  0  0  0  0
    2.3670   -0.2510   -1.0530 C   0  0  0  0  0  0  0  0  0  0  0  0
    2.9900   -0.4400   -2.2630 C   0  0  0  0  0  0  0  0  0  0  0  0
    4.3190   -0.9070   -2.2890 C   0  0  0  0  0  0  0  0  0  0  0  0
    5.0190   -1.1810   -1.1370 C   0  0  0  0  0  0  0  0  0  0  0  0
    4.4000   -0.9940    0.0880 C   0  0  0  0  0  0  0  0  0  0  0  0
    5.0370   -1.2480    1.2930 O   0  0  0  0  0  0  0  0  0  0  0  0
    3.1040   -0.5380    0.0840 C   0  0  0  0  0  0  0  0  0  0  0  0
   -1.2100    2.3730    0.3400 C   0  0  0  0  0  0  0  0  0  0  0  0
   -0.9840    3.2830   -0.6130 O   0  0  0  0  0  0  0  0  0  0  0  0
   -1.1340    2.9260    1.6470 C   0  0  0  0  0  0  0  0  0  0  0  0
   -0.9920    2.3400    2.8580 C   0  0  0  0  0  0  0  0  0  0  0  0
   -1.0590    3.3390    3.8270 C   0  0  0  0  0  0  0  0  0  0  0  0
   -1.2310    4.4570    3.2050 O   0  0  0  0  0  0  0  0  0  0  0  0
   -1.2850    4.2990    1.9210 C   0  0  0  0  0  0  0  0  0  0  0  0
  1  2  2  0
  2  3  1  0
  3  4  1  0
  4  5  1  1
  4  7  1  0
  5  6  1  0
  7  8  2  0
  7  9  1  0
  9 10  1  0
  9 21  1  0
 10 11  1  0
 11 12  2  0
 11 13  1  0
 13 14  1  0
 14 15  2  0
 14 20  1  0
 15 16  1  0
 16 17  2  0
 17 18  1  0
 18 19  1  0
 18 20  2  0
 21 22  2  0
 21 23  1  0
 23 24  1  0
 23 27  2  0
 24 25  2  0
 25 26  1  0
 26 27  1  0
M  END
