
     RDKit          3D

 27 28  0  0  0  0  0  0  0  0999 V2000
   -0.3340    1.6260    3.6030 C   0  0  0  0  0  0  0  0  0  0  0  0
   -0.7790    1.3630    2.2640 O   0  0  0  0  0  0  0  0  0  0  0  0
   -1.3740    0.1540    1.9230 C   0  0  0  0  0  0  0  0  0  0  0  0
   -1.5030   -0.6880    2.8290 O   0  0  0  0  0  0  0  0  0  0  0  0
   -1.7990   -0.0310    0.5380 C   0  0  0  0  0  0  0  0  0  0  0  0
   -1.6210    0.9340   -0.3480 C   0  0  0  0  0  0  0  0  0  0  0  0
   -1.0200    2.1340    0.0620 N   0  0  0  0  0  0  0  0  0  0  0  0
    0.3380    2.3720   -0.2500 C   0  0  0  0  0  0  0  0  0  0  0  0
    1.2030    1.3990   -0.2530 N   0  0  0  0  0  0  0  0  0  0  0  0
    2.5420    1.6910   -0.5710 C   0  0  0  0  0  0  0  0  0  0  0  0
    2.8590    2.8440   -0.9300 O   0  0  0  0  0  0  0  0  0  0  0  0
    3.5480    0.6460   -0.4780 C   0  0  0  0  0  0  0  0  0  0  0  0
    4.8840    0.9000   -0.7820 C   0  0  0  0  0  0  0  0  0  0  0  0
    5.7970   -0.1060   -0.6830 C   0  0  0  0  0  0  0  0  0  0  0  0
    5.4490   -1.3210   -0.3050 O   0  0  0  0  0  0  0  0  0  0  0  0
    4.2160   -1.6300   -0.0050 C   0  0  0  0  0  0  0  0  0  0  0  0
    3.9450   -2.8050    0.3480 O   0  0  0  0  0  0  0  0  0  0  0  0
    3.2510   -0.6480   -0.0890 C   0  0  0  0  0  0  0  0  0  0  0  0
   -2.0170    0.7730   -1.6580 O   0  0  0  0  0  0  0  0  0  0  0  0
   -1.3910    1.4930   -2.7210 C   0  0  0  0  0  0  0  0  0  0  0  0
   -2.4370   -1.2910    0.1580 C   0  0  0  0  0  0  0  0  0  0  0  0
   -3.5840   -1.2240   -0.6420 C   0  0  0  0  0  0  0  0  0  0  0  0
   -4.2400   -2.3610   -1.0600 C   0  0  0  0  0  0  0  0  0  0  0  0
   -3.7170   -3.5820   -0.6540 C   0  0  0  0  0  0  0  0  0  0  0  0
   -2.6170   -3.6270    0.1130 N   0  0  0  0  0  0  0  0  0  0  0  0
   -1.9650   -2.5230    0.5280 C   0  0  0  0  0  0  0  0  0  0  0  0
   -0.9420   -2.6330    1.2420 O   0  0  0  0  0  0  0  0  0  0  0  0
  1  2  1  0
  2  3  1  0
  3  4  2  0
  3  5  1  0
  5  6  2  3
  5 21  1  0
  6  7  1  0
  6 19  1  0
  7  8  1  0
  8  9  2  3
  9 10  1  0
 10 11  2  0
 10 12  1  0
 12 13  1  0
 12 18  2  0
 13 14  2  0
 14 15  1  0
 15 16  1  0
 16 17  2  0
 16 18  1  0
 19 20  1  0
 21 22  2  0
 21 26  1  0
 22 23  1  0
 23 24  2  0
 24 25  1  0
 25 26  1  0
 26 27  2  0
M  END
