
     RDKit          3D

 27 27  0  0  0  0  0  0  0  0999 V2000
    2.6340   -3.4120    1.9850 C   0  0  0  0  0  0  0  0  0  0  0  0
    2.6640   -2.6500    0.8680 C   0  0  0  0  0  0  0  0  0  0  0  0
    3.3780   -3.1870   -0.2520 C   0  0  0  0  0  0  0  0  0  0  0  0
    3.5820   -2.7000   -1.4430 C   0  0  0  0  0  0  0  0  0  0  0  0
    3.1060   -1.4780   -1.8750 O   0  0  0  0  0  0  0  0  0  0  0  0
    1.9720   -1.3930    0.9510 C   0  0  0  0  0  0  0  0  0  0  0  0
    1.3930   -1.1050    2.0600 O   0  0  0  0  0  0  0  0  0  0  0  0
    1.8360   -0.4250   -0.0150 O   0  0  0  0  0  0  0  0  0  0  0  0
    1.1440    0.7600    0.1650 C   0  0  0  0  0  0  0  0  0  0  0  0
    1.8070    1.9500    0.6630 C   0  0  0  0  0  0  0  0  0  0  0  0
    1.1870    3.0560    0.8370 N   0  0  0  0  0  0  0  0  0  0  0  0
    1.8640    4.2190    1.3310 C   0  0  0  0  0  0  0  0  0  0  0  0
    2.6810    4.8730    0.2460 C   0  0  0  0  0  0  0  0  0  0  0  0
    2.6780    4.3620   -0.8900 O   0  0  0  0  0  0  0  0  0  0  0  0
    3.4180    6.0120    0.4980 O   0  0  0  0  0  0  0  0  0  0  0  0
   -0.1840    0.8600   -0.1170 C   0  0  0  0  0  0  0  0  0  0  0  0
   -0.8940   -0.2790   -0.6110 C   0  0  0  0  0  0  0  0  0  0  0  0
   -2.1230   -0.4690   -0.9540 C   0  0  0  0  0  0  0  0  0  0  0  0
   -2.3880   -1.8570   -1.4160 N   0  0  0  0  0  0  0  0  0  0  0  0
   -3.3190   -2.6820   -0.7680 C   0  0  0  0  0  0  0  0  0  0  0  0
   -3.6080   -4.0080   -1.1680 N   0  0  0  0  0  0  0  0  0  0  0  0
   -3.9220   -2.1840    0.2310 O   0  0  0  0  0  0  0  0  0  0  0  0
   -3.2580    0.4240   -0.9620 C   0  0  0  0  0  0  0  0  0  0  0  0
   -3.4010    1.7260   -0.6200 C   0  0  0  0  0  0  0  0  0  0  0  0
   -4.7490    2.1160   -0.8230 C   0  0  0  0  0  0  0  0  0  0  0  0
   -5.3380    0.9670   -1.2910 C   0  0  0  0  0  0  0  0  0  0  0  0
   -4.4700    0.0000   -1.3670 O   0  0  0  0  0  0  0  0  0  0  0  0
  1  2  2  0
  2  3  1  0
  2  6  1  0
  3  4  2  3
  4  5  1  0
  6  7  2  0
  6  8  1  0
  8  9  1  0
  9 10  1  0
  9 16  2  3
 10 11  2  3
 11 12  1  0
 12 13  1  0
 13 14  2  0
 13 15  1  0
 16 17  1  0
 17 18  2  3
 18 19  1  0
 18 23  1  0
 19 20  1  0
 20 21  1  0
 20 22  2  0
 23 24  2  0
 23 27  1  0
 24 25  1  0
 25 26  2  0
 26 27  1  0
M  END
