
     RDKit          3D

 26 30  0  0  0  0  0  0  0  0999 V2000
   -0.3720    0.4340   -1.9240 C   0  0  0  0  0  0  0  0  0  0  0  0
   -0.1110   -0.2380   -0.6450 C   0  0  0  0  0  0  0  0  0  0  0  0
    1.1200   -0.4900   -0.1270 N   0  0  0  0  0  0  0  0  0  0  0  0
    1.0640   -1.1090    1.0450 C   0  0  0  0  0  0  0  0  0  0  0  0
    2.0210   -1.5390    2.0280 C   0  0  0  0  0  0  0  0  0  0  0  0
    3.2250   -1.2810    2.2570 C   0  0  0  0  0  0  0  0  0  0  0  0
    4.2760   -0.4560    1.7210 C   0  0  0  0  0  0  0  0  0  0  0  0
    4.1980    0.5900    0.8510 C   0  0  0  0  0  0  0  0  0  0  0  0
    5.4830    1.0760    0.6120 C   0  0  0  0  0  0  0  0  0  0  0  0
    6.3020    0.2820    1.3710 C   0  0  0  0  0  0  0  0  0  0  0  0
    7.7840    0.4560    1.4150 C   0  0  1  0  0  0  0  0  0  0  0  0
    8.5110    0.0200    2.6420 C   0  0  0  0  0  0  0  0  0  0  0  0
    8.6330   -0.8090    1.3730 C   0  0  0  0  0  0  0  0  0  0  0  0
    5.5790   -0.5890    1.9970 O   0  0  0  0  0  0  0  0  0  0  0  0
   -0.3150   -1.2410    1.2440 N   0  0  0  0  0  0  0  0  0  0  0  0
   -0.9940   -0.7290    0.2510 C   0  0  0  0  0  0  0  0  0  0  0  0
   -2.4770   -0.7260    0.1930 C   0  0  0  0  0  0  0  0  0  0  0  0
   -3.4330   -1.0960    0.8570 N   0  0  0  0  0  0  0  0  0  0  0  0
   -4.6600   -0.9390    0.5180 N   0  0  0  0  0  0  0  0  0  0  0  0
   -5.0040   -0.3850   -0.5380 C   0  0  0  0  0  0  0  0  0  0  0  0
   -6.1980   -0.0340   -1.2430 N   0  0  0  0  0  0  0  0  0  0  0  0
   -6.3020    0.6440   -2.5270 C   0  0  0  0  0  0  0  0  0  0  0  0
   -7.4700    1.5720   -2.3030 C   0  0  0  0  0  0  0  0  0  0  0  0
   -8.1980    1.0800   -1.0790 C   0  0  0  0  0  0  0  0  0  0  0  0
   -7.5650   -0.2730   -0.8400 C   0  0  0  0  0  0  0  0  0  0  0  0
   -3.3130    0.0150   -1.2370 S   0  0  0  0  0  0  0  0  0  0  0  0
  1  2  1  0
  2  3  1  0
  2 16  2  0
  3  4  1  0
  4  5  1  0
  4 15  2  0
  5  6  2  3
  6  7  1  0
  7  8  2  0
  7 14  1  0
  8  9  1  0
  9 10  2  0
 11 10  1  1
 10 14  1  0
 11 12  1  0
 11 13  1  0
 12 13  1  0
 15 16  1  0
 16 17  1  0
 17 18  2  0
 17 26  1  0
 18 19  1  0
 19 20  2  0
 20 21  1  0
 20 26  1  0
 21 22  1  0
 21 25  1  0
 22 23  1  0
 23 24  1  0
 24 25  1  0
M  END
