
     RDKit          3D

 28 30  0  0  0  0  0  0  0  0999 V2000
    1.7010   -2.6500    0.8450 O   0  0  0  0  0  0  0  0  0  0  0  0
    1.7760   -1.4160    0.5360 C   0  0  0  0  0  0  0  0  0  0  0  0
    3.0830   -0.9420    0.1000 C   0  0  0  0  0  0  0  0  0  0  0  0
    3.4270   -0.9820   -1.2340 C   0  0  0  0  0  0  0  0  0  0  0  0
    4.6600   -0.5410   -1.6940 C   0  0  0  0  0  0  0  0  0  0  0  0
    5.5930   -0.0420   -0.8160 C   0  0  0  0  0  0  0  0  0  0  0  0
    6.8450    0.4030   -1.3030 N   0  0  0  0  0  0  0  0  0  0  0  0
    7.7240    0.8640   -0.5450 O   0  0  0  0  0  0  0  0  0  0  0  0
    7.1090    0.3300   -2.6360 O   0  0  0  0  0  0  0  0  0  0  0  0
    5.2720    0.0090    0.5390 C   0  0  0  0  0  0  0  0  0  0  0  0
    4.0310   -0.4380    0.9730 C   0  0  0  0  0  0  0  0  0  0  0  0
    3.7120   -0.3840    2.3340 N   0  0  0  0  0  0  0  0  0  0  0  0
    4.2430    0.4660    3.0600 O   0  0  0  0  0  0  0  0  0  0  0  0
    2.8170   -1.2660    2.8660 O   0  0  0  0  0  0  0  0  0  0  0  0
    0.6360   -0.6300    0.6330 N   0  0  0  0  0  0  0  0  0  0  0  0
    0.6790    0.7670    0.2940 C   0  0  0  0  0  0  0  0  0  0  0  0
   -0.3910    1.0510   -0.7150 C   0  0  0  0  0  0  0  0  0  0  0  0
   -1.6580    0.6210   -0.2120 N   0  0  0  0  0  0  0  0  0  0  0  0
   -2.7480    0.9400   -1.0970 C   0  0  0  0  0  0  0  0  0  0  0  0
   -4.0270    0.4670   -0.5170 C   0  0  0  0  0  0  0  0  0  0  0  0
   -4.7040    1.2830    0.3680 C   0  0  0  0  0  0  0  0  0  0  0  0
   -5.8840    0.9180    0.9390 C   0  0  0  0  0  0  0  0  0  0  0  0
   -6.4340   -0.3090    0.6290 C   0  0  0  0  0  0  0  0  0  0  0  0
   -7.5950   -0.6750    1.1870 F   0  0  0  0  0  0  0  0  0  0  0  0
   -5.7590   -1.1310   -0.2580 C   0  0  0  0  0  0  0  0  0  0  0  0
   -4.5750   -0.7620   -0.8290 C   0  0  0  0  0  0  0  0  0  0  0  0
   -1.7340   -0.7600    0.1470 C   0  0  0  0  0  0  0  0  0  0  0  0
   -0.6090   -1.1870    1.0740 C   0  0  0  0  0  0  0  0  0  0  0  0
  1  2  2  0
  2  3  1  0
  2 15  1  0
  3  4  2  0
  3 11  1  0
  4  5  1  0
  5  6  2  0
  6  7  1  0
  6 10  1  0
  7  8  2  0
  7  9  1  0
 10 11  2  0
 11 12  1  0
 12 13  2  0
 12 14  1  0
 15 16  1  0
 15 28  1  0
 16 17  1  0
 17 18  1  0
 18 19  1  0
 18 27  1  0
 19 20  1  0
 20 21  2  0
 20 26  1  0
 21 22  1  0
 22 23  2  0
 23 24  1  0
 23 25  1  0
 25 26  2  0
 27 28  1  0
M  CHG  4   7   1   9  -1  12   1  14  -1
M  END
