
     RDKit          3D

 28 31  0  0  0  0  0  0  0  0999 V2000
   -4.0730    2.3860    1.2920 C   0  0  0  0  0  0  0  0  0  0  0  0
   -4.3630    0.9150    1.2430 C   0  0  0  0  0  0  0  0  0  0  0  0
   -5.1750    0.4790    2.0520 O   0  0  0  0  0  0  0  0  0  0  0  0
   -3.7090    0.0970    0.2920 N   0  0  0  0  0  0  0  0  0  0  0  0
   -3.8900   -1.2990    0.1340 C   0  0  0  0  0  0  0  0  0  0  0  0
   -4.8510   -2.0390    0.7830 C   0  0  0  0  0  0  0  0  0  0  0  0
   -4.9900   -3.4060    0.5220 C   0  0  0  0  0  0  0  0  0  0  0  0
   -4.1550   -4.0110   -0.3940 C   0  0  0  0  0  0  0  0  0  0  0  0
   -3.1930   -3.2710   -1.0430 C   0  0  0  0  0  0  0  0  0  0  0  0
   -3.0490   -1.9190   -0.7890 C   0  0  0  0  0  0  0  0  0  0  0  0
   -2.0690   -1.2070   -1.4600 O   0  0  0  0  0  0  0  0  0  0  0  0
   -1.0100   -0.6220   -0.7890 C   0  0  0  0  0  0  0  0  0  0  0  0
   -0.7800   -0.7800    0.5730 C   0  0  0  0  0  0  0  0  0  0  0  0
    0.3070   -0.1610    1.1830 C   0  0  0  0  0  0  0  0  0  0  0  0
    1.1800    0.6200    0.4590 C   0  0  0  0  0  0  0  0  0  0  0  0
    0.9310    0.7590   -0.8840 C   0  0  0  0  0  0  0  0  0  0  0  0
   -0.1300    0.1650   -1.5170 C   0  0  0  0  0  0  0  0  0  0  0  0
    1.8640    1.5980   -1.6530 C   0  0  0  0  0  0  0  0  0  0  0  0
    3.2410    1.2370   -1.2350 C   0  0  0  0  0  0  0  0  0  0  0  0
    4.2130    1.0630   -2.1980 C   0  0  0  0  0  0  0  0  0  0  0  0
    5.4930    0.7410   -1.8110 C   0  0  0  0  0  0  0  0  0  0  0  0
    5.7410    0.6080   -0.4690 C   0  0  0  0  0  0  0  0  0  0  0  0
    4.7510    0.7850    0.5160 C   0  0  0  0  0  0  0  0  0  0  0  0
    5.0940    0.6420    1.9360 C   0  0  1  0  0  0  0  0  0  0  0  0
    5.6620   -0.6270    2.0990 F   0  0  0  0  0  0  0  0  0  0  0  0
    6.1470    1.5300    2.1830 F   0  0  0  0  0  0  0  0  0  0  0  0
    3.4780    1.1040    0.1310 C   0  0  0  0  0  0  0  0  0  0  0  0
    2.3660    1.2970    1.1000 C   0  0  0  0  0  0  0  0  0  0  0  0
  1  2  1  0
  2  3  2  0
  2  4  1  0
  4  5  1  0
  5  6  2  0
  5 10  1  0
  6  7  1  0
  7  8  2  0
  8  9  1  0
  9 10  2  0
 10 11  1  0
 11 12  1  0
 12 13  2  0
 12 17  1  0
 13 14  1  0
 14 15  2  0
 15 16  1  0
 15 28  1  0
 16 17  2  0
 16 18  1  0
 18 19  1  0
 19 20  2  0
 19 27  1  0
 20 21  1  0
 21 22  2  0
 22 23  1  0
 23 24  1  0
 23 27  2  0
 24 25  1  6
 24 26  1  0
 27 28  1  0
M  END
