
     RDKit          3D

 28 31  0  0  0  0  0  0  0  0999 V2000
    2.0330   -1.3580   -1.5150 C   0  0  0  0  0  0  0  0  0  0  0  0
    1.0030   -1.9830   -0.6570 C   0  0  0  0  0  0  0  0  0  0  0  0
    1.3200   -3.2090   -0.1800 C   0  0  0  0  0  0  0  0  0  0  0  0
    2.4940   -3.8010   -0.4790 F   0  0  0  0  0  0  0  0  0  0  0  0
   -0.3850   -1.5990   -0.6210 C   0  0  0  0  0  0  0  0  0  0  0  0
   -1.2620   -2.6000   -0.4500 N   0  0  0  0  0  0  0  0  0  0  0  0
   -2.6720   -2.2960   -0.3970 C   0  0  0  0  0  0  0  0  0  0  0  0
   -3.0080   -1.3220   -1.4610 C   0  0  0  0  0  0  0  0  0  0  0  0
   -2.2280   -0.0790   -1.2550 C   0  0  0  0  0  0  0  0  0  0  0  0
   -0.8640   -0.3030   -0.9910 C   0  0  0  0  0  0  0  0  0  0  0  0
   -0.0970    0.8210   -0.8620 C   0  0  0  0  0  0  0  0  0  0  0  0
    1.1890    0.8520   -0.1020 C   0  0  0  0  0  0  0  0  0  0  0  0
    2.0250    1.6930   -0.5090 O   0  0  0  0  0  0  0  0  0  0  0  0
    1.5000    0.0940    0.9590 O   0  0  0  0  0  0  0  0  0  0  0  0
    2.5690    0.0240    1.7840 C   0  0  0  0  0  0  0  0  0  0  0  0
    2.3870   -0.3950    3.1160 C   0  0  0  0  0  0  0  0  0  0  0  0
    3.4210   -0.4890    4.0090 C   0  0  0  0  0  0  0  0  0  0  0  0
    4.6970   -0.1670    3.6130 C   0  0  0  0  0  0  0  0  0  0  0  0
    4.8910    0.2400    2.3280 C   0  0  0  0  0  0  0  0  0  0  0  0
    3.8410    0.3340    1.4250 C   0  0  0  0  0  0  0  0  0  0  0  0
    4.2130    0.7790    0.1840 F   0  0  0  0  0  0  0  0  0  0  0  0
   -0.6660    2.1010   -1.0140 C   0  0  0  0  0  0  0  0  0  0  0  0
   -1.9970    2.2530   -1.2750 C   0  0  0  0  0  0  0  0  0  0  0  0
   -2.5960    3.4900   -1.4240 C   0  0  0  0  0  0  0  0  0  0  0  0
   -3.9380    3.6640   -1.6820 C   0  0  0  0  0  0  0  0  0  0  0  0
   -4.7480    2.5550   -1.8030 C   0  0  0  0  0  0  0  0  0  0  0  0
   -4.1630    1.3190   -1.6570 C   0  0  0  0  0  0  0  0  0  0  0  0
   -2.8200    1.1360   -1.3990 C   0  0  0  0  0  0  0  0  0  0  0  0
  1  2  1  0
  2  3  2  3
  2  5  1  0
  3  4  1  0
  5  6  2  0
  5 10  1  0
  6  7  1  0
  7  8  1  0
  8  9  1  0
  9 10  2  0
  9 28  1  0
 10 11  1  0
 11 12  1  0
 11 22  2  0
 12 13  2  0
 12 14  1  0
 14 15  1  0
 15 16  2  0
 15 20  1  0
 16 17  1  0
 17 18  2  0
 18 19  1  0
 19 20  2  0
 20 21  1  0
 22 23  1  0
 23 24  2  0
 23 28  1  0
 24 25  1  0
 25 26  2  0
 26 27  1  0
 27 28  2  0
M  END
