
     RDKit          3D

 26 30  0  0  0  0  0  0  0  0999 V2000
   -1.7450    4.9380    0.7830 C   0  0  0  0  0  0  0  0  0  0  0  0
   -2.5680    4.2070    1.6140 C   0  0  0  0  0  0  0  0  0  0  0  0
   -2.5460    2.8620    1.6110 N   0  0  0  0  0  0  0  0  0  0  0  0
   -1.7140    2.1690    0.7910 C   0  0  0  0  0  0  0  0  0  0  0  0
   -1.6920    0.7150    0.7900 C   0  0  0  0  0  0  0  0  0  0  0  0
   -2.5050   -0.0220    1.6110 C   0  0  0  0  0  0  0  0  0  0  0  0
   -2.5080   -1.3640    1.6320 N   0  0  0  0  0  0  0  0  0  0  0  0
   -1.6530   -1.9690    0.7880 C   0  0  0  0  0  0  0  0  0  0  0  0
   -0.8070   -1.2980   -0.0660 C   0  0  0  0  0  0  0  0  0  0  0  0
   -0.8220    0.0770   -0.0690 C   0  0  0  0  0  0  0  0  0  0  0  0
   -0.0760    0.7610   -0.8140 N   0  0  0  0  0  0  0  0  0  0  0  0
    0.8650    0.3880   -1.7440 C   0  0  0  0  0  0  0  0  0  0  0  0
    0.6270    0.3750   -3.5770 S   0  0  0  0  0  0  0  0  0  0  0  0
    2.3560   -0.2240   -3.9280 C   0  0  0  0  0  0  0  0  0  0  0  0
    2.8800   -0.3380   -2.6960 C   0  0  0  0  0  0  0  0  0  0  0  0
    2.1600   -0.0400   -1.5970 C   0  0  0  0  0  0  0  0  0  0  0  0
    2.7310   -0.1620   -0.2030 C   0  0  0  0  0  0  0  0  0  0  0  0
    3.9610   -0.5580    0.1400 N   0  0  0  0  0  0  0  0  0  0  0  0
    4.0930   -0.5350    1.4770 C   0  0  0  0  0  0  0  0  0  0  0  0
    2.8610   -0.0970    1.9440 C   0  0  0  0  0  0  0  0  0  0  0  0
    2.1120    0.1020    0.9070 O   0  0  0  0  0  0  0  0  0  0  0  0
   -0.0290   -2.3260   -0.8340 C   0  0  0  0  0  0  0  0  0  0  0  0
   -0.9860   -3.5090   -0.8110 C   0  0  0  0  0  0  0  0  0  0  0  0
   -1.4600   -3.4560    0.6210 C   0  0  0  0  0  0  0  0  0  0  0  0
   -0.9110    2.8770   -0.0190 N   0  0  0  0  0  0  0  0  0  0  0  0
   -0.8990    4.2220   -0.0500 C   0  0  0  0  0  0  0  0  0  0  0  0
  1  2  2  0
  1 26  1  0
  2  3  1  0
  3  4  2  0
  4  5  1  0
  4 25  1  0
  5  6  2  0
  5 10  1  0
  6  7  1  0
  7  8  1  0
  8  9  2  0
  8 24  1  0
  9 10  1  0
  9 22  1  0
 10 11  2  3
 11 12  1  0
 12 13  1  0
 12 16  2  0
 13 14  1  0
 14 15  2  0
 15 16  1  0
 16 17  1  0
 17 18  2  0
 17 21  1  0
 18 19  1  0
 19 20  2  0
 20 21  1  0
 22 23  1  0
 23 24  1  0
 25 26  2  0
M  END
