
     RDKit          3D

 28 31  0  0  0  0  0  0  0  0999 V2000
   -2.9770   -2.2460   -1.8280 C   0  0  0  0  0  0  0  0  0  0  0  0
   -4.1240   -1.8530   -1.3750 C   0  0  0  0  0  0  0  0  0  0  0  0
   -4.4340   -0.8440   -0.4040 C   0  0  0  0  0  0  0  0  0  0  0  0
   -5.7880   -0.6620   -0.0380 C   0  0  0  0  0  0  0  0  0  0  0  0
   -6.1370    0.2960    0.8890 C   0  0  0  0  0  0  0  0  0  0  0  0
   -5.1760    1.0680    1.4530 C   0  0  0  0  0  0  0  0  0  0  0  0
   -3.8780    0.8860    1.0960 C   0  0  0  0  0  0  0  0  0  0  0  0
   -3.4650   -0.0670    0.1640 C   0  0  0  0  0  0  0  0  0  0  0  0
   -2.1300   -0.1990   -0.1570 N   0  0  0  0  0  0  0  0  0  0  0  0
   -1.3250    0.7040   -0.5800 C   0  0  0  0  0  0  0  0  0  0  0  0
   -1.5350    2.1490   -0.8610 C   0  0  0  0  0  0  0  0  0  0  0  0
   -0.6950    2.3090   -2.1340 C   0  0  1  0  0  0  0  0  0  0  0  0
   -1.3800    1.7300   -3.1770 F   0  0  0  0  0  0  0  0  0  0  0  0
   -0.3250    3.5970   -2.3570 F   0  0  0  0  0  0  0  0  0  0  0  0
    0.4630    1.4130   -1.8240 C   0  0  0  0  0  0  0  0  0  0  0  0
    1.7450    1.4090   -2.2960 C   0  0  0  0  0  0  0  0  0  0  0  0
    2.6600    0.4560   -1.8470 C   0  0  0  0  0  0  0  0  0  0  0  0
    2.3000   -0.5030   -0.9230 C   0  0  0  0  0  0  0  0  0  0  0  0
    3.1890   -1.4740   -0.4520 O   0  0  0  0  0  0  0  0  0  0  0  0
    3.9640   -1.2200    0.6810 C   0  0  0  0  0  0  0  0  0  0  0  0
    5.2000   -0.6400    0.4780 C   0  0  0  0  0  0  0  0  0  0  0  0
    6.0080   -0.3690    1.5800 C   0  0  0  0  0  0  0  0  0  0  0  0
    5.5910   -0.6690    2.8570 C   0  0  0  0  0  0  0  0  0  0  0  0
    6.3700   -0.4130    3.9890 O   0  0  0  0  0  0  0  0  0  0  0  0
    4.3590   -1.2440    3.0320 C   0  0  0  0  0  0  0  0  0  0  0  0
    3.5200   -1.5330    1.9610 C   0  0  0  0  0  0  0  0  0  0  0  0
    1.0140   -0.4880   -0.4610 C   0  0  0  0  0  0  0  0  0  0  0  0
    0.0790    0.4570   -0.8940 C   0  0  0  0  0  0  0  0  0  0  0  0
  1  2  2  0
  2  3  1  0
  3  4  2  0
  3  8  1  0
  4  5  1  0
  5  6  2  0
  6  7  1  0
  7  8  2  0
  8  9  1  0
  9 10  2  3
 10 11  1  0
 10 28  1  0
 11 12  1  0
 12 13  1  6
 12 14  1  0
 12 15  1  0
 15 16  2  0
 15 28  1  0
 16 17  1  0
 17 18  2  0
 18 19  1  0
 18 27  1  0
 19 20  1  0
 20 21  2  0
 20 26  1  0
 21 22  1  0
 22 23  2  0
 23 24  1  0
 23 25  1  0
 25 26  2  0
 27 28  2  0
M  END
