
     RDKit          3D

 28 31  0  0  0  0  0  0  0  0999 V2000
    6.7870   -0.7940   -2.5040 C   0  0  0  0  0  0  0  0  0  0  0  0
    5.8180   -0.1970   -1.5190 C   0  0  0  0  0  0  0  0  0  0  0  0
    6.2350    0.7700   -0.6300 C   0  0  0  0  0  0  0  0  0  0  0  0
    5.3460    1.3190    0.2750 C   0  0  0  0  0  0  0  0  0  0  0  0
    4.0270    0.9140    0.3080 C   0  0  0  0  0  0  0  0  0  0  0  0
    3.1480    1.4720    1.2200 C   0  0  0  0  0  0  0  0  0  0  0  0
    1.8610    1.0340    1.2060 C   0  0  0  0  0  0  0  0  0  0  0  0
    1.3740    0.0690    0.3450 C   0  0  0  0  0  0  0  0  0  0  0  0
    0.0010   -0.3800    0.3500 C   0  0  0  0  0  0  0  0  0  0  0  0
   -0.3790   -1.2520   -0.4510 O   0  0  0  0  0  0  0  0  0  0  0  0
   -0.9620    0.1970    1.3110 C   0  0  0  0  0  0  0  0  0  0  0  0
   -2.2730   -0.3520    1.1880 N   0  0  0  0  0  0  0  0  0  0  0  0
   -2.5670   -1.4260    1.9690 C   0  0  0  0  0  0  0  0  0  0  0  0
   -1.7220   -1.9150    2.7650 O   0  0  0  0  0  0  0  0  0  0  0  0
   -3.8130   -2.0050    1.8990 C   0  0  0  0  0  0  0  0  0  0  0  0
   -4.7880   -1.5070    1.0360 C   0  0  0  0  0  0  0  0  0  0  0  0
   -6.1280   -2.1110    0.9460 C   0  0  0  0  0  0  0  0  0  0  0  0
   -4.4320   -0.4170    0.2690 C   0  0  0  0  0  0  0  0  0  0  0  0
   -5.3440    0.1210   -0.6080 C   0  0  0  0  0  0  0  0  0  0  0  0
   -6.5810   -0.4200   -0.7050 F   0  0  0  0  0  0  0  0  0  0  0  0
   -5.0420    1.2200   -1.4160 C   0  0  0  0  0  0  0  0  0  0  0  0
   -3.7990    1.7880   -1.3390 C   0  0  0  0  0  0  0  0  0  0  0  0
   -3.4320    2.8560   -2.0910 F   0  0  0  0  0  0  0  0  0  0  0  0
   -2.8640    1.2720   -0.4710 C   0  0  0  0  0  0  0  0  0  0  0  0
   -3.1620    0.1780    0.3350 C   0  0  0  0  0  0  0  0  0  0  0  0
    2.2940   -0.4620   -0.5520 C   0  0  0  0  0  0  0  0  0  0  0  0
    3.6140   -0.0650   -0.5950 C   0  0  0  0  0  0  0  0  0  0  0  0
    4.5070   -0.6240   -1.5120 C   0  0  0  0  0  0  0  0  0  0  0  0
  1  2  1  0
  2  3  2  0
  2 28  1  0
  3  4  1  0
  4  5  2  0
  5  6  1  0
  5 27  1  0
  6  7  2  0
  7  8  1  0
  8  9  1  0
  8 26  2  0
  9 10  2  0
  9 11  1  0
 11 12  1  0
 12 13  1  0
 12 25  1  0
 13 14  2  0
 13 15  1  0
 15 16  2  0
 16 17  1  0
 16 18  1  0
 18 19  2  0
 18 25  1  0
 19 20  1  0
 19 21  1  0
 21 22  2  0
 22 23  1  0
 22 24  1  0
 24 25  2  0
 26 27  1  0
 27 28  2  0
M  END
