
     RDKit          3D

 28 31  0  0  0  0  0  0  0  0999 V2000
   -0.1430   -1.9130   -1.6540 C   0  0  0  0  0  0  0  0  0  0  0  0
   -0.7480   -2.2470   -0.3620 C   0  0  0  0  0  0  0  0  0  0  0  0
   -1.0930   -3.5460   -0.0660 C   0  0  0  0  0  0  0  0  0  0  0  0
   -1.6830   -3.9200    1.1220 C   0  0  0  0  0  0  0  0  0  0  0  0
   -1.9460   -2.9420    2.0760 C   0  0  0  0  0  0  0  0  0  0  0  0
   -1.6200   -1.6490    1.8230 C   0  0  0  0  0  0  0  0  0  0  0  0
   -1.0250   -1.2840    0.6200 C   0  0  0  0  0  0  0  0  0  0  0  0
   -0.5450    0.0430    0.3680 C   0  0  0  0  0  0  0  0  0  0  0  0
   -1.1400    1.1580    0.1340 C   0  0  0  0  0  0  0  0  0  0  0  0
   -0.3410    2.4030   -0.0740 C   0  0  0  0  0  0  0  0  0  0  0  0
   -0.8300    3.5660   -0.3980 C   0  0  0  0  0  0  0  0  0  0  0  0
   -2.2390    3.7960   -0.5990 C   0  0  0  0  0  0  0  0  0  0  0  0
   -3.0250    2.5750   -0.3920 C   0  0  0  0  0  0  0  0  0  0  0  0
   -2.5640    1.3690   -0.0620 C   0  0  0  0  0  0  0  0  0  0  0  0
   -3.5690    0.2940    0.0880 C   0  0  2  0  0  0  0  0  0  0  0  0
   -3.9660    0.0660    1.3830 F   0  0  0  0  0  0  0  0  0  0  0  0
   -3.3360   -0.8270   -0.6660 F   0  0  0  0  0  0  0  0  0  0  0  0
    0.9580    0.0930    0.3060 C   0  0  0  0  0  0  0  0  0  0  0  0
    1.6350   -0.3780    1.4030 C   0  0  0  0  0  0  0  0  0  0  0  0
    3.0050   -0.4120    1.4010 C   0  0  0  0  0  0  0  0  0  0  0  0
    3.7130    0.0230    0.3040 C   0  0  0  0  0  0  0  0  0  0  0  0
    3.0300    0.4950   -0.7960 C   0  0  0  0  0  0  0  0  0  0  0  0
    1.6480    0.5250   -0.7840 C   0  0  0  0  0  0  0  0  0  0  0  0
    3.9820    0.8960   -1.8260 C   0  0  0  0  0  0  0  0  0  0  0  0
    3.7350    1.3740   -2.9670 O   0  0  0  0  0  0  0  0  0  0  0  0
    5.2680    0.6380   -1.2810 N   0  0  0  0  0  0  0  0  0  0  0  0
    5.1400    0.1020    0.0250 C   0  0  0  0  0  0  0  0  0  0  0  0
    6.0650   -0.2510    0.8230 O   0  0  0  0  0  0  0  0  0  0  0  0
  1  2  1  0
  2  3  2  0
  2  7  1  0
  3  4  1  0
  4  5  2  0
  5  6  1  0
  6  7  2  0
  7  8  1  0
  8  9  2  3
  8 18  1  0
  9 10  1  0
  9 14  1  0
 10 11  2  0
 11 12  1  0
 12 13  1  0
 13 14  2  0
 14 15  1  0
 15 16  1  1
 15 17  1  0
 18 19  2  0
 18 23  1  0
 19 20  1  0
 20 21  2  0
 21 22  1  0
 21 27  1  0
 22 23  2  0
 22 24  1  0
 24 25  2  0
 24 26  1  0
 26 27  1  0
 27 28  2  0
M  END
