
     RDKit          3D

 28 29  0  0  0  0  0  0  0  0999 V2000
   -2.0450   -1.8510   -4.0120 O   0  0  0  0  0  0  0  0  0  0  0  0
   -2.0110   -1.7470   -2.7660 C   0  0  0  0  0  0  0  0  0  0  0  0
   -3.1910   -1.6740   -1.9550 N   0  0  0  0  0  0  0  0  0  0  0  0
   -3.0550   -1.3980   -0.5150 C   0  0  0  0  0  0  0  0  0  0  0  0
   -1.8820   -0.4130   -0.4380 C   0  0  1  0  0  0  0  0  0  0  0  0
   -2.2620    0.8830   -1.6690 P   0  0  0  0  0  0  0  0  0  0  0  0
   -3.9570    1.0430   -1.8710 O   0  0  0  0  0  0  0  0  0  0  0  0
   -1.4980    2.3910   -1.3870 O   0  0  0  0  0  0  0  0  0  0  0  0
   -1.8240    0.0500    0.9120 N   0  0  0  0  0  0  0  0  0  0  0  0
   -2.3440    1.6790    1.4540 P   0  0  0  0  0  0  0  0  0  0  0  0
   -3.4970    2.3700    0.3630 O   0  0  0  0  0  0  0  0  0  0  0  0
   -3.0220    1.5750    3.0460 O   0  0  0  0  0  0  0  0  0  0  0  0
   -1.3190   -0.8380    1.9020 C   0  0  0  0  0  0  0  0  0  0  0  0
   -1.2450   -0.4780    3.1090 O   0  0  0  0  0  0  0  0  0  0  0  0
   -0.9060   -2.1230    1.5030 O   0  0  0  0  0  0  0  0  0  0  0  0
   -0.5220   -2.3900    0.1840 C   0  0  0  0  0  0  0  0  0  0  0  0
   -0.6540   -1.2140   -0.7480 C   0  0  2  0  0  0  0  0  0  0  0  0
    0.6010   -0.3920   -0.6260 C   0  0  0  0  0  0  0  0  0  0  0  0
    1.3660   -0.2260   -1.6070 O   0  0  0  0  0  0  0  0  0  0  0  0
    0.9720    0.2120    0.5510 O   0  0  0  0  0  0  0  0  0  0  0  0
    2.1160    0.9940    0.7820 C   0  0  0  0  0  0  0  0  0  0  0  0
    3.3220    0.1210    0.5430 C   0  0  0  0  0  0  0  0  0  0  0  0
    4.9110    1.0400    0.8190 P   0  0  0  0  0  0  0  0  0  0  0  0
    4.6910    2.4120    1.8420 O   0  0  0  0  0  0  0  0  0  0  0  0
    5.8510    2.9650    2.0520 O   0  0  0  0  0  0  0  0  0  0  0  0
    6.0230   -0.0610    1.5690 O   0  0  0  0  0  0  0  0  0  0  0  0
    6.6060   -0.7900    0.6450 O   0  0  0  0  0  0  0  0  0  0  0  0
   -0.7480   -1.7000   -2.1200 N   0  0  0  0  0  0  0  0  0  0  0  0
  1  2  2  0
  2  3  1  0
  2 28  1  0
  3  4  1  0
  4  5  1  0
  5  6  1  6
  5  9  1  0
  5 17  1  0
  6  7  1  0
  6  8  1  0
  9 10  1  0
  9 13  1  0
 10 11  1  0
 10 12  1  0
 13 14  2  0
 13 15  1  0
 15 16  1  0
 16 17  1  0
 17 18  1  6
 17 28  1  0
 18 19  2  0
 18 20  1  0
 20 21  1  0
 21 22  1  0
 22 23  1  0
 23 24  1  0
 23 26  1  0
 24 25  1  0
 26 27  1  0
M  END
