
     RDKit          3D

 28 29  0  0  0  0  0  0  0  0999 V2000
    2.8930   -0.1480    0.9120 O   0  0  0  0  0  0  0  0  0  0  0  0
    2.6670    0.5180   -0.1330 C   0  0  0  0  0  0  0  0  0  0  0  0
    1.6030    1.4800   -0.1580 N   0  0  0  0  0  0  0  0  0  0  0  0
    0.8310    1.6450    1.0210 C   0  0  1  0  0  0  0  0  0  0  0  0
    1.0280    2.9430    1.5660 O   0  0  0  0  0  0  0  0  0  0  0  0
    0.0960    3.1530    2.4190 O   0  0  0  0  0  0  0  0  0  0  0  0
   -0.9200    2.2580    2.2890 C   0  0  0  0  0  0  0  0  0  0  0  0
   -0.6520    1.6950    0.8440 C   0  0  2  0  0  0  0  0  0  0  0  0
   -1.3320    0.5250    0.6800 O   0  0  0  0  0  0  0  0  0  0  0  0
   -1.1790   -0.4380   -0.2800 C   0  0  0  0  0  0  0  0  0  0  0  0
   -0.3000   -0.2590   -1.1400 O   0  0  0  0  0  0  0  0  0  0  0  0
   -2.0160   -1.5990   -0.2680 N   0  0  0  0  0  0  0  0  0  0  0  0
   -1.9770   -2.6940   -1.2050 C   0  0  0  0  0  0  0  0  0  0  0  0
   -2.7420   -3.8280   -0.5370 C   0  0  0  0  0  0  0  0  0  0  0  0
   -3.6320   -3.1430    0.3680 N   0  0  0  0  0  0  0  0  0  0  0  0
   -3.0390   -1.8860    0.6700 C   0  0  0  0  0  0  0  0  0  0  0  0
   -3.4040   -1.1680    1.6410 O   0  0  0  0  0  0  0  0  0  0  0  0
   -1.1320    2.7840   -0.0510 C   0  0  2  0  0  0  0  0  0  0  0  0
   -2.4990    2.9940    0.2550 O   0  0  0  0  0  0  0  0  0  0  0  0
   -1.0260    2.4550   -1.8490 P   0  0  0  0  0  0  0  0  0  0  0  0
   -2.5640    2.2820   -2.6070 O   0  0  0  0  0  0  0  0  0  0  0  0
   -0.1520    3.7010   -2.6840 O   0  0  0  0  0  0  0  0  0  0  0  0
    3.4710    0.3060   -1.2680 O   0  0  0  0  0  0  0  0  0  0  0  0
    4.7700   -0.8370   -1.3080 P   0  0  0  0  0  0  0  0  0  0  0  0
    6.1660   -0.1460   -0.5300 O   0  0  0  0  0  0  0  0  0  0  0  0
    4.3000   -2.7290   -0.3400 P   0  0  0  0  0  0  0  0  0  0  0  0
    3.8700   -2.5630    1.3110 O   0  0  0  0  0  0  0  0  0  0  0  0
    3.1580   -3.6670   -1.2260 O   0  0  0  0  0  0  0  0  0  0  0  0
  1  2  2  0
  2  3  1  0
  2 23  1  0
  4  3  1  6
  4  5  1  0
  4  8  1  0
  5  6  1  0
  6  7  1  0
  7  8  1  0
  8  9  1  6
  8 18  1  0
  9 10  1  0
 10 11  2  0
 10 12  1  0
 12 13  1  0
 12 16  1  0
 13 14  1  0
 14 15  1  0
 15 16  1  0
 16 17  2  0
 18 19  1  1
 18 20  1  0
 20 21  1  0
 20 22  1  0
 23 24  1  0
 24 25  1  0
 24 26  1  0
 26 27  1  0
 26 28  1  0
M  END
