
     RDKit          3D

 21 22  0  0  0  0  0  0  0  0999 V2000
   -5.1960    2.2050    0.5380 O   0  0  0  0  0  0  0  0  0  0  0  0
   -4.1880    1.4000    0.5600 C   0  0  0  0  0  0  0  0  0  0  0  0
   -3.9080    0.6800   -0.5470 N   0  0  0  0  0  0  0  0  0  0  0  0
   -2.8400   -0.1710   -0.4670 C   0  0  0  0  0  0  0  0  0  0  0  0
   -2.5690   -0.8260   -1.4560 O   0  0  0  0  0  0  0  0  0  0  0  0
   -2.1030   -0.3200    0.5860 N   0  0  0  0  0  0  0  0  0  0  0  0
   -0.9120   -1.0920    0.6530 C   0  0  1  0  0  0  0  0  0  0  0  0
   -0.5630   -2.0930   -0.3210 C   0  0  0  0  0  0  0  0  0  0  0  0
    0.3570   -1.3470   -1.2970 C   0  0  2  0  0  0  0  0  0  0  0  0
    1.2010   -2.2570   -1.9300 O   0  0  0  0  0  0  0  0  0  0  0  0
    1.0740   -0.5550   -0.2110 C   0  0  1  0  0  0  0  0  0  0  0  0
    1.9490    0.5670   -0.7840 C   0  0  0  0  0  0  0  0  0  0  0  0
    2.2730    1.2940    0.3840 O   0  0  0  0  0  0  0  0  0  0  0  0
    3.9070    1.3470    0.6410 P   0  0  1  0  0  0  0  0  0  0  0  0
    4.0180    1.1640    2.2300 O   0  0  0  0  0  0  0  0  0  0  0  0
    4.5820   -0.1590    0.1290 O   0  0  0  0  0  0  0  0  0  0  0  0
    4.8190    2.6260    0.3020 O   0  0  0  0  0  0  0  0  0  0  0  0
    0.0970   -0.0480    0.5770 O   0  0  0  0  0  0  0  0  0  0  0  0
   -2.3870    0.4120    1.7130 C   0  0  0  0  0  0  0  0  0  0  0  0
   -3.4560    1.2970    1.7250 C   0  0  0  0  0  0  0  0  0  0  0  0
   -3.8250    2.0340    2.7890 F   0  0  0  0  0  0  0  0  0  0  0  0
  1  2  2  0
  2  3  1  0
  2 20  1  0
  3  4  1  0
  4  5  2  0
  4  6  1  0
  7  6  1  6
  6 19  1  0
  7  8  1  0
  7 18  1  0
  8  9  1  0
  9 10  1  1
  9 11  1  0
 11 12  1  6
 11 18  1  0
 12 13  1  0
 13 14  1  0
 14 15  2  0
 14 16  1  6
 14 17  1  0
 19 20  2  0
 20 21  1  0
M  END
