
     RDKit          3D

 27 27  0  0  0  0  0  0  0  0999 V2000
   -1.5100   -0.6650   -2.2440 C   0  0  0  0  0  0  0  0  0  0  0  0
   -1.7280    0.0200   -1.0500 O   0  0  0  0  0  0  0  0  0  0  0  0
   -2.3470   -0.7640   -0.0960 C   0  0  2  0  0  0  0  0  0  0  0  0
   -3.8010   -0.3380    0.1090 C   0  0  0  0  0  0  0  0  0  0  0  0
   -3.9230    1.0740    0.3260 N   0  0  0  0  0  0  0  0  0  0  0  0
   -3.0550    2.0790   -0.8580 P   0  0  0  0  0  0  0  0  0  0  0  0
   -3.9880    3.4500   -1.3440 O   0  0  0  0  0  0  0  0  0  0  0  0
   -1.5520    2.5110   -0.1630 O   0  0  0  0  0  0  0  0  0  0  0  0
   -0.9880    3.5460   -0.7000 O   0  0  0  0  0  0  0  0  0  0  0  0
    0.6530    3.5490   -0.0990 P   0  0  0  0  0  0  0  0  0  0  0  0
    1.6900    4.5950   -0.9820 O   0  0  0  0  0  0  0  0  0  0  0  0
    1.2350    1.9190   -0.2840 O   0  0  0  0  0  0  0  0  0  0  0  0
    0.9930    1.1710    0.8710 C   0  0  0  0  0  0  0  0  0  0  0  0
    1.6340   -0.1480    0.7830 C   0  0  2  0  0  0  0  0  0  0  0  0
    2.5260   -0.3740   -0.3320 N   0  0  0  0  0  0  0  0  0  0  0  0
    3.6870    0.4660   -0.2530 C   0  0  0  0  0  0  0  0  0  0  0  0
    4.7270    0.1040   -1.3050 C   0  0  0  0  0  0  0  0  0  0  0  0
    4.1320    0.2640   -2.5490 O   0  0  0  0  0  0  0  0  0  0  0  0
    0.7820   -1.3340    0.9720 C   0  0  0  0  0  0  0  0  0  0  0  0
    1.2780   -2.4180    0.5080 O   0  0  0  0  0  0  0  0  0  0  0  0
   -0.4860   -1.4460    1.5820 N   0  0  0  0  0  0  0  0  0  0  0  0
   -0.5970   -2.2990    2.6950 O   0  0  0  0  0  0  0  0  0  0  0  0
    0.1150   -3.7960    2.1130 P   0  0  0  0  0  0  0  0  0  0  0  0
   -0.6790   -4.2710    0.6410 O   0  0  0  0  0  0  0  0  0  0  0  0
    0.0510   -5.0220    3.3100 O   0  0  0  0  0  0  0  0  0  0  0  0
   -1.6920   -0.7940    1.2170 C   0  0  0  0  0  0  0  0  0  0  0  0
   -2.2480   -0.1590    2.1870 O   0  0  0  0  0  0  0  0  0  0  0  0
  1  2  1  0
  3  2  1  6
  3  4  1  0
  3 26  1  0
  4  5  1  0
  5  6  1  0
  6  7  1  0
  6  8  1  0
  8  9  1  0
  9 10  1  0
 10 11  1  0
 10 12  1  0
 12 13  1  0
 13 14  1  0
 14 15  1  6
 14 19  1  0
 15 16  1  0
 16 17  1  0
 17 18  1  0
 19 20  2  0
 19 21  1  0
 21 22  1  0
 21 26  1  0
 22 23  1  0
 23 24  1  0
 23 25  1  0
 26 27  2  0
M  END
