
     RDKit          3D

 28 29  0  0  0  0  0  0  0  0999 V2000
   -2.7780   -0.5430   -2.0290 O   0  0  0  0  0  0  0  0  0  0  0  0
   -2.5260   -0.2630   -0.8260 C   0  0  0  0  0  0  0  0  0  0  0  0
   -1.2880   -0.6530   -0.2460 N   0  0  0  0  0  0  0  0  0  0  0  0
   -0.3250   -1.3750   -1.0570 C   0  0  0  0  0  0  0  0  0  0  0  0
    0.9220   -1.7120   -0.3040 C   0  0  2  0  0  0  0  0  0  0  0  0
    0.6900   -2.5100    0.8110 O   0  0  0  0  0  0  0  0  0  0  0  0
    1.7880   -3.3760    0.9520 C   0  0  0  0  0  0  0  0  0  0  0  0
    3.3850   -2.4530    0.7330 P   0  0  0  0  0  0  0  0  0  0  0  0
    4.6310   -3.2100    1.6530 O   0  0  0  0  0  0  0  0  0  0  0  0
    3.1940   -0.7740    1.1800 O   0  0  0  0  0  0  0  0  0  0  0  0
    1.8410   -0.1960    0.2550 P   0  0  0  0  0  0  0  0  0  0  0  0
    2.3580    0.7340   -1.1100 O   0  0  0  0  0  0  0  0  0  0  0  0
    3.9910    1.2390   -0.9930 P   0  0  0  0  0  0  0  0  0  0  0  0
    4.8420    0.8870   -2.4620 O   0  0  0  0  0  0  0  0  0  0  0  0
    4.7960    0.5610    0.3840 O   0  0  0  0  0  0  0  0  0  0  0  0
    6.1130    0.7800    0.2760 O   0  0  0  0  0  0  0  0  0  0  0  0
    6.6500    2.0600    0.2980 C   0  0  0  0  0  0  0  0  0  0  0  0
    5.8750    3.0460    0.4220 O   0  0  0  0  0  0  0  0  0  0  0  0
    8.0030    2.3220    0.1890 O   0  0  0  0  0  0  0  0  0  0  0  0
   -3.5230    0.4450   -0.1070 N   0  0  0  0  0  0  0  0  0  0  0  0
   -4.8000    0.8440   -0.7140 C   0  0  2  0  0  0  0  0  0  0  0  0
   -4.9430    2.3510   -0.6990 C   0  0  0  0  0  0  0  0  0  0  0  0
   -4.8270    2.7600    0.6510 O   0  0  0  0  0  0  0  0  0  0  0  0
   -5.5720    2.1270    1.6340 C   0  0  0  0  0  0  0  0  0  0  0  0
   -5.7460    2.6930    2.7350 O   0  0  0  0  0  0  0  0  0  0  0  0
   -6.1320    0.8440    1.3840 N   0  0  0  0  0  0  0  0  0  0  0  0
   -5.8920    0.2630    0.1080 C   0  0  0  0  0  0  0  0  0  0  0  0
   -6.5590   -0.7040   -0.3350 O   0  0  0  0  0  0  0  0  0  0  0  0
  1  2  2  0
  2  3  1  0
  2 20  1  0
  3  4  1  0
  5  4  1  1
  5  6  1  0
  5 11  1  0
  6  7  1  0
  7  8  1  0
  8  9  1  0
  8 10  1  0
 10 11  1  0
 11 12  1  0
 12 13  1  0
 13 14  1  0
 13 15  1  0
 15 16  1  0
 16 17  1  0
 17 18  2  0
 17 19  1  0
 21 20  1  1
 21 22  1  0
 21 27  1  0
 22 23  1  0
 23 24  1  0
 24 25  2  0
 24 26  1  0
 26 27  1  0
 27 28  2  0
M  END
