
     RDKit          3D

 26 28  0  0  0  0  0  0  0  0999 V2000
    7.5770    0.3490    0.2700 N   0  0  0  0  0  0  0  0  0  0  0  0
    6.8810   -0.5910    0.9480 O   0  0  0  0  0  0  0  0  0  0  0  0
    6.7090   -1.9940   -0.0490 P   0  0  0  0  0  0  0  0  0  0  0  0
    7.0900   -3.4530    0.8300 O   0  0  0  0  0  0  0  0  0  0  0  0
    5.1080   -2.1000   -0.7640 O   0  0  0  0  0  0  0  0  0  0  0  0
    4.1430   -1.1140   -0.5110 C   0  0  0  0  0  0  0  0  0  0  0  0
    4.4270   -0.1420    0.2380 O   0  0  0  0  0  0  0  0  0  0  0  0
    2.8520   -1.2060   -1.0920 N   0  0  0  0  0  0  0  0  0  0  0  0
    1.8690   -0.1960   -0.8310 C   0  0  0  0  0  0  0  0  0  0  0  0
    2.2090    0.7310   -0.0890 O   0  0  0  0  0  0  0  0  0  0  0  0
    0.6150   -0.2140   -1.3490 O   0  0  0  0  0  0  0  0  0  0  0  0
   -0.4400    0.6510   -1.1990 C   0  0  0  0  0  0  0  0  0  0  0  0
   -1.0230    0.7910    0.1920 C   0  0  1  0  0  0  0  0  0  0  0  0
   -2.0720    1.8880    0.1810 C   0  0  0  0  0  0  0  0  0  0  0  0
   -3.4620    1.4080   -0.0170 C   0  0  1  0  0  0  0  0  0  0  0  0
   -4.1760    2.2570   -0.9880 N   0  0  0  0  0  0  0  0  0  0  0  0
   -5.3660    1.8690   -1.2960 C   0  0  0  0  0  0  0  0  0  0  0  0
   -5.9350    0.6970   -0.7260 N   0  0  0  0  0  0  0  0  0  0  0  0
   -5.1250   -0.3580   -0.1530 C   0  0  0  0  0  0  0  0  0  0  0  0
   -3.6580    0.0040   -0.4390 C   0  0  2  0  0  0  0  0  0  0  0  0
   -2.7610   -0.9590    0.2050 C   0  0  0  0  0  0  0  0  0  0  0  0
   -3.0360   -2.1830    0.3280 O   0  0  0  0  0  0  0  0  0  0  0  0
   -1.5200   -0.4350    0.7060 N   0  0  0  0  0  0  0  0  0  0  0  0
   -0.5960   -0.9300    1.7060 C   0  0  0  0  0  0  0  0  0  0  0  0
   -0.0390    0.4130    2.1900 C   0  0  0  0  0  0  0  0  0  0  0  0
   -0.0380    1.2050    1.0520 O   0  0  0  0  0  0  0  0  0  0  0  0
  1  2  1  0
  2  3  1  0
  3  4  1  0
  3  5  1  0
  5  6  1  0
  6  7  2  0
  6  8  1  0
  8  9  1  0
  9 10  2  0
  9 11  1  0
 11 12  1  0
 13 12  1  6
 13 14  1  0
 13 23  1  0
 13 26  1  0
 15 14  1  6
 15 16  1  0
 15 20  1  0
 16 17  2  0
 17 18  1  0
 18 19  1  0
 20 19  1  1
 20 21  1  0
 21 22  2  0
 21 23  1  0
 23 24  1  0
 24 25  1  0
 25 26  1  0
M  END
