
     RDKit          3D

 25 26  0  0  0  0  0  0  0  0999 V2000
    3.2260    0.0480    2.9270 C   0  0  0  0  0  0  0  0  0  0  0  0
    2.9390   -0.2180    1.5220 N   0  0  0  0  0  0  0  0  0  0  0  0
    1.6630   -0.6810    1.0600 C   0  0  0  0  0  0  0  0  0  0  0  0
    0.6350    0.4130    1.2440 C   0  0  0  0  0  0  0  0  0  0  0  0
   -0.6780   -0.0420    0.7730 N   0  0  0  0  0  0  0  0  0  0  0  0
   -1.5840   -0.7030    1.6900 C   0  0  0  0  0  0  0  0  0  0  0  0
   -2.9870   -0.2290    1.3630 C   0  0  0  0  0  0  0  0  0  0  0  0
   -3.3220   -0.7260    0.0050 C   0  0  1  0  0  0  0  0  0  0  0  0
   -4.7170   -0.5550   -0.4110 C   0  0  0  0  0  0  0  0  0  0  0  0
   -5.7000   -0.4460    0.3560 O   0  0  0  0  0  0  0  0  0  0  0  0
   -4.9080   -0.5170   -1.8090 O   0  0  0  0  0  0  0  0  0  0  0  0
   -3.8990   -0.9260   -2.7010 C   0  0  0  0  0  0  0  0  0  0  0  0
   -2.5640   -0.7880   -2.2400 N   0  0  0  0  0  0  0  0  0  0  0  0
   -2.4740    0.0180   -1.0380 C   0  0  1  0  0  0  0  0  0  0  0  0
   -3.0550    1.3490   -1.3420 C   0  0  0  0  0  0  0  0  0  0  0  0
   -3.4980    1.5950   -2.4730 O   0  0  0  0  0  0  0  0  0  0  0  0
   -3.1170    2.3470   -0.3730 O   0  0  0  0  0  0  0  0  0  0  0  0
   -1.0790    0.1560   -0.5700 C   0  0  0  0  0  0  0  0  0  0  0  0
   -0.2040    0.4640   -1.4090 O   0  0  0  0  0  0  0  0  0  0  0  0
    4.0000    0.0040    0.6010 C   0  0  0  0  0  0  0  0  0  0  0  0
    5.2310   -0.2970    0.8480 N   0  0  0  0  0  0  0  0  0  0  0  0
    3.7280    0.5860   -0.6700 N   0  0  0  0  0  0  0  0  0  0  0  0
    4.8630    0.3160   -2.0450 P   0  0  0  0  0  0  0  0  0  0  0  0
    4.5090    1.4690   -3.3070 O   0  0  0  0  0  0  0  0  0  0  0  0
    6.5130    0.5420   -1.5350 O   0  0  0  0  0  0  0  0  0  0  0  0
  1  2  1  0
  2  3  1  0
  2 20  1  0
  3  4  1  0
  4  5  1  0
  5  6  1  0
  5 18  1  0
  6  7  1  0
  8  7  1  1
  8  9  1  0
  8 14  1  0
  9 10  2  0
  9 11  1  0
 11 12  1  0
 12 13  1  0
 13 14  1  0
 14 15  1  6
 14 18  1  0
 15 16  2  0
 15 17  1  0
 18 19  2  0
 20 21  2  0
 20 22  1  0
 22 23  1  0
 23 24  1  0
 23 25  1  0
M  END
