
     RDKit          3D

 26 28  0  0  0  0  0  0  0  0999 V2000
   -5.7360   -0.2850   -0.7100 O   0  0  0  0  0  0  0  0  0  0  0  0
   -5.4450   -0.2330    0.5140 C   0  0  0  0  0  0  0  0  0  0  0  0
   -4.1150   -0.0560    0.9210 N   0  0  0  0  0  0  0  0  0  0  0  0
   -3.0290    0.0780   -0.0620 C   0  0  2  0  0  0  0  0  0  0  0  0
   -2.2820   -1.2420   -0.1380 C   0  0  0  0  0  0  0  0  0  0  0  0
   -1.2260   -1.3350    0.8040 N   0  0  0  0  0  0  0  0  0  0  0  0
   -0.1800   -0.3690    0.6810 C   0  0  1  0  0  0  0  0  0  0  0  0
    0.7550   -0.6920   -0.4400 C   0  0  0  0  0  0  0  0  0  0  0  0
    0.3890   -1.2970   -1.4830 O   0  0  0  0  0  0  0  0  0  0  0  0
    2.0840   -0.3130   -0.3280 O   0  0  0  0  0  0  0  0  0  0  0  0
    3.0790   -0.5390   -1.2890 C   0  0  0  0  0  0  0  0  0  0  0  0
    4.3880   -0.0220   -0.7580 C   0  0  0  0  0  0  0  0  0  0  0  0
    5.5140   -0.7610   -0.5900 N   0  0  0  0  0  0  0  0  0  0  0  0
    6.4820    0.0180   -0.0860 C   0  0  0  0  0  0  0  0  0  0  0  0
    7.7960    0.1090    0.3550 C   0  0  0  0  0  0  0  0  0  0  0  0
    8.0610    1.3960    0.7680 C   0  0  0  0  0  0  0  0  0  0  0  0
    6.9220    2.0980    0.5850 N   0  0  0  0  0  0  0  0  0  0  0  0
    5.9660    1.2920    0.0740 C   0  0  0  0  0  0  0  0  0  0  0  0
    4.6800    1.2180   -0.3510 N   0  0  0  0  0  0  0  0  0  0  0  0
   -0.7540    0.9090    0.5090 O   0  0  0  0  0  0  0  0  0  0  0  0
   -2.0890    1.1640    0.2780 C   0  0  0  0  0  0  0  0  0  0  0  0
   -2.4860    2.3760    0.3660 O   0  0  0  0  0  0  0  0  0  0  0  0
   -6.5160   -0.3630    1.3880 O   0  0  0  0  0  0  0  0  0  0  0  0
   -8.1770   -0.5890    0.8970 P   0  0  0  0  0  0  0  0  0  0  0  0
   -8.9300    0.8140    0.2750 O   0  0  0  0  0  0  0  0  0  0  0  0
   -8.4290   -1.9550   -0.1000 O   0  0  0  0  0  0  0  0  0  0  0  0
  1  2  2  0
  2  3  1  0
  2 23  1  0
  4  3  1  1
  4  5  1  0
  4 21  1  0
  5  6  1  0
  6  7  1  0
  7  8  1  6
  7 20  1  0
  8  9  2  0
  8 10  1  0
 10 11  1  0
 11 12  1  0
 12 13  2  0
 12 19  1  0
 13 14  1  0
 14 15  1  0
 14 18  2  0
 15 16  2  0
 16 17  1  0
 17 18  1  0
 18 19  1  0
 20 21  1  0
 21 22  2  0
 23 24  1  0
 24 25  1  0
 24 26  1  0
M  END
