
     RDKit          3D

 26 27  0  0  0  0  0  0  0  0999 V2000
   -5.1060   -2.3460    1.2370 C   0  0  0  0  0  0  0  0  0  0  0  0
   -3.8830   -1.5350    1.3190 N   0  0  0  0  0  0  0  0  0  0  0  0
   -2.7870   -1.8720    0.4800 C   0  0  0  0  0  0  0  0  0  0  0  0
   -2.9230   -2.8630   -0.2910 O   0  0  0  0  0  0  0  0  0  0  0  0
   -1.5850   -1.1340    0.5020 N   0  0  0  0  0  0  0  0  0  0  0  0
   -1.2070    0.0390    1.2170 C   0  0  2  0  0  0  0  0  0  0  0  0
   -1.8210    1.2850    0.7640 C   0  0  0  0  0  0  0  0  0  0  0  0
   -3.0770    1.3590    0.5940 O   0  0  0  0  0  0  0  0  0  0  0  0
   -1.1000    2.4600    0.4930 N   0  0  0  0  0  0  0  0  0  0  0  0
   -1.7520    3.6510    0.0040 C   0  0  0  0  0  0  0  0  0  0  0  0
   -1.0070    4.7960   -0.2910 N   0  0  0  0  0  0  0  0  0  0  0  0
   -3.0010    3.6090   -0.1420 O   0  0  0  0  0  0  0  0  0  0  0  0
    0.1730    0.0550    1.2690 O   0  0  0  0  0  0  0  0  0  0  0  0
    0.6700   -0.5540    0.1020 C   0  0  1  0  0  0  0  0  0  0  0  0
    0.8930    0.4720   -0.8660 N   0  0  0  0  0  0  0  0  0  0  0  0
    2.1850    0.8010   -1.2570 C   0  0  0  0  0  0  0  0  0  0  0  0
    3.0550    1.4460   -0.2160 C   0  0  0  0  0  0  0  0  0  0  0  0
    4.7550    1.8150   -0.8650 P   0  0  0  0  0  0  0  0  0  0  0  0
    5.9310    0.7100   -0.1730 O   0  0  0  0  0  0  0  0  0  0  0  0
    5.2540    3.4290   -0.3730 O   0  0  0  0  0  0  0  0  0  0  0  0
    1.8580   -1.1880    0.3540 O   0  0  0  0  0  0  0  0  0  0  0  0
    2.1550   -2.3550   -0.2430 C   0  0  0  0  0  0  0  0  0  0  0  0
    1.1420   -3.2930   -0.3640 O   0  0  0  0  0  0  0  0  0  0  0  0
    0.0440   -2.8900    0.3670 C   0  0  0  0  0  0  0  0  0  0  0  0
   -0.3800   -1.5370   -0.2440 C   0  0  1  0  0  0  0  0  0  0  0  0
   -0.6850   -1.7060   -1.6780 C   0  0  0  0  0  0  0  0  0  0  0  0
  1  2  1  0
  2  3  1  0
  3  4  2  0
  3  5  1  0
  5  6  1  0
  5 25  1  0
  6  7  1  6
  6 13  1  0
  7  8  2  0
  7  9  1  0
  9 10  1  0
 10 11  1  0
 10 12  2  0
 13 14  1  0
 14 15  1  6
 14 21  1  0
 14 25  1  0
 15 16  1  0
 16 17  1  0
 17 18  1  0
 18 19  1  0
 18 20  1  0
 21 22  1  0
 22 23  1  0
 23 24  1  0
 24 25  1  0
 25 26  1  6
M  END
