
     RDKit          3D

 25 26  0  0  0  0  0  0  0  0999 V2000
    3.8760   -1.6120    1.7360 C   0  0  0  0  0  0  0  0  0  0  0  0
    3.6060   -0.7370    0.6300 N   0  0  0  0  0  0  0  0  0  0  0  0
    2.5060   -1.0110   -0.2570 C   0  0  0  0  0  0  0  0  0  0  0  0
    1.2300   -0.8170    0.4650 C   0  0  0  0  0  0  0  0  0  0  0  0
    1.2510   -0.4650    1.6630 O   0  0  0  0  0  0  0  0  0  0  0  0
   -0.0170   -1.0310   -0.2050 N   0  0  0  0  0  0  0  0  0  0  0  0
   -1.2780   -0.8540    0.4490 C   0  0  0  0  0  0  0  0  0  0  0  0
   -2.3890   -1.1500   -0.5240 C   0  0  1  0  0  0  0  0  0  0  0  0
   -2.2440   -2.4600   -0.9700 O   0  0  0  0  0  0  0  0  0  0  0  0
   -3.7480   -1.0900    0.1560 C   0  0  0  0  0  0  0  0  0  0  0  0
   -4.1650    0.3290    0.2770 C   0  0  2  0  0  0  0  0  0  0  0  0
   -5.5750    0.5460    0.7670 C   0  0  0  0  0  0  0  0  0  0  0  0
   -5.8110    1.9290    0.3130 N   0  0  0  0  0  0  0  0  0  0  0  0
   -4.8910    2.2420   -0.7250 C   0  0  0  0  0  0  0  0  0  0  0  0
   -4.6000    3.3490   -1.2330 O   0  0  0  0  0  0  0  0  0  0  0  0
   -4.3020    0.9530   -1.1230 C   0  0  1  0  0  0  0  0  0  0  0  0
   -3.0120    1.0130   -1.6500 O   0  0  0  0  0  0  0  0  0  0  0  0
   -2.2980   -0.2080   -1.6520 C   0  0  0  0  0  0  0  0  0  0  0  0
   -1.5610   -0.5230   -2.6290 O   0  0  0  0  0  0  0  0  0  0  0  0
    4.4140    0.4010    0.4000 C   0  0  0  0  0  0  0  0  0  0  0  0
    3.9140    1.4290   -0.2160 N   0  0  0  0  0  0  0  0  0  0  0  0
    5.7740    0.4640    0.8230 N   0  0  0  0  0  0  0  0  0  0  0  0
    6.7440    1.9100    0.3410 P   0  0  0  0  0  0  0  0  0  0  0  0
    5.6740    3.2000   -0.1080 O   0  0  0  0  0  0  0  0  0  0  0  0
    7.6630    1.4890   -1.0720 O   0  0  0  0  0  0  0  0  0  0  0  0
  1  2  1  0
  2  3  1  0
  2 20  1  0
  3  4  1  0
  4  5  2  0
  4  6  1  0
  6  7  1  0
  7  8  1  0
  8  9  1  6
  8 10  1  0
  8 18  1  0
 11 10  1  6
 11 12  1  0
 11 16  1  0
 12 13  1  0
 13 14  1  0
 14 15  2  0
 14 16  1  0
 16 17  1  1
 17 18  1  0
 18 19  2  0
 20 21  2  0
 20 22  1  0
 22 23  1  0
 23 24  1  0
 23 25  1  0
M  END
