
     RDKit          3D

 25 26  0  0  0  0  0  0  0  0999 V2000
    4.6340    1.3480    1.3410 N   0  0  0  0  0  0  0  0  0  0  0  0
    3.8290    1.8610    0.2960 C   0  0  0  0  0  0  0  0  0  0  0  0
    3.7960    3.0810    0.0630 O   0  0  0  0  0  0  0  0  0  0  0  0
    3.0280    0.9370   -0.5170 C   0  0  2  0  0  0  0  0  0  0  0  0
    2.0670    0.2190    0.4430 C   0  0  0  0  0  0  0  0  0  0  0  0
    1.1860   -0.6920   -0.2300 N   0  0  0  0  0  0  0  0  0  0  0  0
   -0.2240   -0.4740   -0.1260 C   0  0  0  0  0  0  0  0  0  0  0  0
   -0.9980   -1.2460   -0.7340 O   0  0  0  0  0  0  0  0  0  0  0  0
   -0.7260    0.6210    0.6680 C   0  0  2  0  0  0  0  0  0  0  0  0
   -0.5100    0.4620    2.1580 C   0  0  0  0  0  0  0  0  0  0  0  0
    0.1600   -0.3460    2.7980 O   0  0  0  0  0  0  0  0  0  0  0  0
   -1.3040    1.5200    2.6830 N   0  0  0  0  0  0  0  0  0  0  0  0
   -2.3700    1.7880    1.7390 C   0  0  0  0  0  0  0  0  0  0  0  0
   -3.2770    2.6550    1.8470 O   0  0  0  0  0  0  0  0  0  0  0  0
   -2.1490    0.8430    0.6660 N   0  0  0  0  0  0  0  0  0  0  0  0
   -3.2260    0.3550   -0.1450 C   0  0  0  0  0  0  0  0  0  0  0  0
   -3.8630   -0.8450    0.4940 C   0  0  0  0  0  0  0  0  0  0  0  0
   -5.2540   -1.5280   -0.5250 P   0  0  0  0  0  0  0  0  0  0  0  0
   -6.6410   -0.4940   -0.4980 O   0  0  0  0  0  0  0  0  0  0  0  0
   -4.7340   -1.8250   -2.1550 O   0  0  0  0  0  0  0  0  0  0  0  0
    1.5710   -1.8460   -1.0150 C   0  0  0  0  0  0  0  0  0  0  0  0
    2.1840   -1.5250   -2.3350 C   0  0  0  0  0  0  0  0  0  0  0  0
    3.5610   -1.0760   -2.0600 N   0  0  0  0  0  0  0  0  0  0  0  0
    3.9290   -0.0570   -1.1400 C   0  0  0  0  0  0  0  0  0  0  0  0
    5.1510   -0.0320   -0.8550 O   0  0  0  0  0  0  0  0  0  0  0  0
  1  2  1  0
  2  3  2  0
  4  2  1  1
  4  5  1  0
  4 24  1  0
  5  6  1  0
  6  7  1  0
  6 21  1  0
  7  8  2  0
  9  7  1  6
  9 10  1  0
  9 15  1  0
 10 11  2  0
 10 12  1  0
 12 13  1  0
 13 14  2  0
 13 15  1  0
 15 16  1  0
 16 17  1  0
 17 18  1  0
 18 19  1  0
 18 20  1  0
 21 22  1  0
 22 23  1  0
 23 24  1  0
 24 25  2  0
M  END
