
     RDKit          3D

 25 26  0  0  0  0  0  0  0  0999 V2000
    6.6710    0.2350   -3.0180 O   0  0  0  0  0  0  0  0  0  0  0  0
    6.1790   -0.2070   -1.9520 C   0  0  0  0  0  0  0  0  0  0  0  0
    4.7800    0.0360   -1.4970 C   0  0  0  0  0  0  0  0  0  0  0  0
    4.9190   -0.0920   -0.0660 N   0  0  0  0  0  0  0  0  0  0  0  0
    4.0730    0.5360    0.9130 C   0  0  0  0  0  0  0  0  0  0  0  0
    4.2610    0.3710    2.1430 O   0  0  0  0  0  0  0  0  0  0  0  0
    2.9950    1.3640    0.5090 N   0  0  0  0  0  0  0  0  0  0  0  0
    2.1900    1.9600    1.5010 C   0  0  0  0  0  0  0  0  0  0  0  0
    0.9030    1.6980    1.5370 C   0  0  0  0  0  0  0  0  0  0  0  0
    0.3360    0.7930    0.5470 C   0  0  0  0  0  0  0  0  0  0  0  0
   -0.9240    0.4680    0.4940 C   0  0  0  0  0  0  0  0  0  0  0  0
   -1.5610   -0.4600   -0.5050 C   0  0  0  0  0  0  0  0  0  0  0  0
   -2.6410   -1.0640    0.3400 C   0  0  2  0  0  0  0  0  0  0  0  0
   -3.8320   -1.4360   -0.3440 N   0  0  0  0  0  0  0  0  0  0  0  0
   -4.5490   -0.3420   -0.9490 C   0  0  2  0  0  0  0  0  0  0  0  0
   -4.9250    0.6130    0.0170 O   0  0  0  0  0  0  0  0  0  0  0  0
   -6.0860   -0.9870   -1.7690 P   0  0  0  0  0  0  0  0  0  0  0  0
   -6.3150   -2.6260   -1.2930 O   0  0  0  0  0  0  0  0  0  0  0  0
   -7.4360   -0.0170   -1.2940 O   0  0  0  0  0  0  0  0  0  0  0  0
   -3.0000    0.0210    1.2570 N   0  0  0  0  0  0  0  0  0  0  0  0
   -2.0350    0.8800    1.3430 C   0  0  0  0  0  0  0  0  0  0  0  0
   -2.0630    2.0260    2.1320 O   0  0  0  0  0  0  0  0  0  0  0  0
    6.0210   -0.9340    0.2040 C   0  0  0  0  0  0  0  0  0  0  0  0
    6.2620   -1.5210    1.3090 O   0  0  0  0  0  0  0  0  0  0  0  0
    6.8120   -1.0120   -0.9630 N   0  0  0  0  0  0  0  0  0  0  0  0
  1  2  2  0
  2  3  1  0
  2 25  1  0
  3  4  1  0
  4  5  1  0
  4 23  1  0
  5  6  2  0
  5  7  1  0
  7  8  1  0
  8  9  2  3
  9 10  1  0
 10 11  2  3
 11 12  1  0
 11 21  1  0
 12 13  1  0
 13 14  1  6
 13 20  1  0
 14 15  1  0
 15 16  1  1
 15 17  1  0
 17 18  1  0
 17 19  1  0
 20 21  2  0
 21 22  1  0
 23 24  2  0
 23 25  1  0
M  END
