
     RDKit          3D

 12 11  0  0  0  0  0  0  0  0999 V2000
    3.4040   -1.1250    0.5900 C   0  0  0  0  0  0  0  0  0  0  0  0
    2.2670   -0.2980    0.4150 O   0  0  0  0  0  0  0  0  0  0  0  0
    2.4730    0.9710   -0.1100 C   0  0  0  0  0  0  0  0  0  0  0  0
    3.6360    1.3580   -0.4140 O   0  0  0  0  0  0  0  0  0  0  0  0
    1.3700    1.9360   -0.3440 C   0  0  0  0  0  0  0  0  0  0  0  0
    0.1190    1.4230    0.0210 O   0  0  0  0  0  0  0  0  0  0  0  0
   -0.4500    0.2950   -0.5280 C   0  0  0  0  0  0  0  0  0  0  0  0
    0.2110   -0.3060   -1.4150 O   0  0  0  0  0  0  0  0  0  0  0  0
   -1.7700   -0.2380   -0.1370 C   0  0  2  0  0  0  0  0  0  0  0  0
   -2.8780    0.7920   -0.3910 C   0  0  0  0  0  0  0  0  0  0  0  0
   -1.8410   -0.5690    1.3370 C   0  0  0  0  0  0  0  0  0  0  0  0
   -2.1780   -1.7530   -1.0960 P   0  0  0  0  0  0  0  0  0  0  0  0
  1  2  1  0
  2  3  1  0
  3  4  2  0
  3  5  1  0
  5  6  1  0
  6  7  1  0
  7  8  2  0
  7  9  1  0
  9 10  1  1
  9 11  1  0
  9 12  1  0
M  END
