
     RDKit          3D

 11 10  0  0  0  0  0  0  0  0999 V2000
   -1.9290   -0.8140    1.0460 C   0  0  0  0  0  0  0  0  0  0  0  0
   -1.6170    0.0250   -0.1640 C   0  0  2  0  0  0  0  0  0  0  0  0
   -2.6380    1.1440   -0.2550 C   0  0  0  0  0  0  0  0  0  0  0  0
   -1.6900   -0.7670   -1.4480 C   0  0  0  0  0  0  0  0  0  0  0  0
   -0.3410    0.6230   -0.0530 O   0  0  0  0  0  0  0  0  0  0  0  0
    0.8230   -0.0890    0.0740 C   0  0  0  0  0  0  0  0  0  0  0  0
    0.7920   -1.3350    0.0980 O   0  0  0  0  0  0  0  0  0  0  0  0
    2.0970    0.6540    0.1820 C   0  0  0  0  0  0  0  0  0  0  0  0
    3.2810   -0.3090    0.3170 C   0  0  0  0  0  0  0  0  0  0  0  0
    4.8000    0.7580    0.4410 P   0  0  0  0  0  0  0  0  0  0  0  0
    5.2910    1.1010    1.8920 O   0  0  0  0  0  0  0  0  0  0  0  0
  2  1  1  1
  2  3  1  0
  2  4  1  0
  2  5  1  0
  5  6  1  0
  6  7  2  0
  6  8  1  0
  8  9  1  0
  9 10  1  0
 10 11  2  0
M  END
