
     RDKit          3D

 12 12  0  0  0  0  0  0  0  0999 V2000
    5.1980    0.6050    0.0040 O   0  0  0  0  0  0  0  0  0  0  0  0
    4.3890   -0.6070   -0.5610 P   0  0  0  0  0  0  0  0  0  0  0  0
    2.5760   -0.8360   -0.1570 C   0  0  0  0  0  0  0  0  0  0  0  0
    2.0360    0.5100    0.2270 C   0  0  0  0  0  0  0  0  0  0  0  0
    0.6790    0.5070    0.5610 O   0  0  0  0  0  0  0  0  0  0  0  0
   -0.3440    0.1240   -0.2810 C   0  0  0  0  0  0  0  0  0  0  0  0
   -0.0200   -0.2500   -1.4380 O   0  0  0  0  0  0  0  0  0  0  0  0
   -1.7480    0.1330    0.1030 C   0  0  0  0  0  0  0  0  0  0  0  0
   -2.8120   -0.2360   -0.6890 C   0  0  0  0  0  0  0  0  0  0  0  0
   -3.9880   -0.0820    0.0510 C   0  0  0  0  0  0  0  0  0  0  0  0
   -3.6320    0.3600    1.2320 O   0  0  0  0  0  0  0  0  0  0  0  0
   -2.3130    0.5010    1.3040 C   0  0  0  0  0  0  0  0  0  0  0  0
  1  2  2  0
  2  3  1  0
  3  4  1  0
  4  5  1  0
  5  6  1  0
  6  7  2  0
  6  8  1  0
  8  9  1  0
  8 12  2  0
  9 10  2  0
 10 11  1  0
 11 12  1  0
M  END
