
     RDKit          3D

 11 11  0  0  0  0  0  0  0  0999 V2000
    3.3100   -0.2550    0.5570 C   0  0  0  0  0  0  0  0  0  0  0  0
    2.1960    0.6610   -0.5690 P   0  0  0  0  0  0  0  0  0  0  0  0
    2.3610    2.3600   -0.4970 O   0  0  0  0  0  0  0  0  0  0  0  0
    0.4510    0.1210   -0.3930 C   0  0  0  0  0  0  0  0  0  0  0  0
    0.1230   -1.1460    0.0480 C   0  0  0  0  0  0  0  0  0  0  0  0
   -1.2000   -1.5550    0.1810 C   0  0  0  0  0  0  0  0  0  0  0  0
   -2.2340   -0.6900   -0.1300 C   0  0  0  0  0  0  0  0  0  0  0  0
   -3.5210   -1.1330    0.0160 O   0  0  0  0  0  0  0  0  0  0  0  0
   -4.3850   -0.5800    0.8660 O   0  0  0  0  0  0  0  0  0  0  0  0
   -1.9190    0.5860   -0.5740 C   0  0  0  0  0  0  0  0  0  0  0  0
   -0.5890    0.9710   -0.6980 C   0  0  0  0  0  0  0  0  0  0  0  0
  1  2  1  0
  2  3  1  0
  2  4  1  0
  4  5  2  0
  4 11  1  0
  5  6  1  0
  6  7  2  0
  7  8  1  0
  7 10  1  0
  8  9  1  0
 10 11  2  0
M  END
