
     RDKit          3D

 14 13  0  0  0  0  0  0  0  0999 V2000
    0.1910   -2.1040    1.2830 N   0  0  0  0  0  0  0  0  0  0  0  0
    0.3250   -1.3330    0.1930 C   0  0  0  0  0  0  0  0  0  0  0  0
    1.5870   -1.7600   -0.6400 C   0  0  0  0  0  0  0  0  0  0  0  0
    2.0680   -0.5010   -1.0440 O   0  0  0  0  0  0  0  0  0  0  0  0
    2.6060    0.3930   -0.5190 O   0  0  0  0  0  0  0  0  0  0  0  0
    3.7690    0.9630   -0.0860 C   0  0  0  0  0  0  0  0  0  0  0  0
    4.8090    0.1880   -0.3670 O   0  0  0  0  0  0  0  0  0  0  0  0
    3.9920    2.1690    0.5100 O   0  0  0  0  0  0  0  0  0  0  0  0
   -0.4900   -0.3460   -0.1820 O   0  0  0  0  0  0  0  0  0  0  0  0
   -1.8710   -0.3780    0.0540 C   0  0  0  0  0  0  0  0  0  0  0  0
   -2.3740    0.9430   -0.2740 O   0  0  0  0  0  0  0  0  0  0  0  0
   -3.7240    1.1560    0.0730 C   0  0  0  0  0  0  0  0  0  0  0  0
   -4.3970    0.2600    0.6170 O   0  0  0  0  0  0  0  0  0  0  0  0
   -4.3550    2.3830   -0.1460 O   0  0  0  0  0  0  0  0  0  0  0  0
  1  2  2  0
  2  3  1  0
  2  9  1  0
  3  4  1  0
  4  5  1  0
  5  6  1  0
  6  7  2  0
  6  8  1  0
  9 10  1  0
 10 11  1  0
 11 12  1  0
 12 13  2  0
 12 14  1  0
M  END
