
     RDKit          3D

 12 12  0  0  0  0  0  0  0  0999 V2000
   -3.3300    1.5900   -0.1600 C   0  0  0  0  0  0  0  0  0  0  0  0
   -2.6140    1.4780    1.0720 O   0  0  0  0  0  0  0  0  0  0  0  0
   -1.3880    0.8210    1.0210 C   0  0  0  0  0  0  0  0  0  0  0  0
   -0.6500    0.6810    2.1800 C   0  0  0  0  0  0  0  0  0  0  0  0
    0.5790    0.0240    2.1330 C   0  0  0  0  0  0  0  0  0  0  0  0
    1.0760   -0.4900    0.9570 C   0  0  0  0  0  0  0  0  0  0  0  0
    0.3500   -0.3550   -0.1990 C   0  0  0  0  0  0  0  0  0  0  0  0
    0.7710   -0.8400   -1.4250 O   0  0  0  0  0  0  0  0  0  0  0  0
    2.2430   -1.6800   -1.7290 P   0  0  0  0  0  0  0  0  0  0  0  0
    2.7760   -2.6830   -0.4530 O   0  0  0  0  0  0  0  0  0  0  0  0
    3.4860   -0.7070   -2.4150 O   0  0  0  0  0  0  0  0  0  0  0  0
   -0.8640    0.2960   -0.1430 C   0  0  0  0  0  0  0  0  0  0  0  0
  1  2  1  0
  2  3  1  0
  3  4  2  0
  3 12  1  0
  4  5  1  0
  5  6  2  0
  6  7  1  0
  7  8  1  0
  7 12  2  0
  8  9  1  0
  9 10  1  0
  9 11  1  0
M  END
