
     RDKit          3D

 12 11  0  0  0  0  0  0  0  0999 V2000
    4.7120    1.0820   -0.1160 C   0  0  0  0  0  0  0  0  0  0  0  0
    3.5960    0.2480    0.0320 O   0  0  0  0  0  0  0  0  0  0  0  0
    2.3540    0.7980    0.1700 C   0  0  0  0  0  0  0  0  0  0  0  0
    2.2360    2.0470    0.1610 O   0  0  0  0  0  0  0  0  0  0  0  0
    1.1580   -0.0690    0.3280 C   0  0  0  0  0  0  0  0  0  0  0  0
    0.4650   -0.0840   -1.0210 C   0  0  0  0  0  0  0  0  0  0  0  0
   -0.6880   -0.8630   -1.0570 O   0  0  0  0  0  0  0  0  0  0  0  0
   -1.8210   -0.6850   -0.2800 C   0  0  0  0  0  0  0  0  0  0  0  0
   -1.7900    0.2750    0.5300 O   0  0  0  0  0  0  0  0  0  0  0  0
   -2.9760   -1.5740   -0.4090 C   0  0  0  0  0  0  0  0  0  0  0  0
   -4.0530   -1.4270    0.3070 C   0  0  0  0  0  0  0  0  0  0  0  0
   -4.3190   -0.1430    1.5530 P   0  0  0  0  0  0  0  0  0  0  0  0
  1  2  1  0
  2  3  1  0
  3  4  2  0
  3  5  1  0
  5  6  1  0
  6  7  1  0
  7  8  1  0
  8  9  2  0
  8 10  1  0
 10 11  2  3
 11 12  1  0
M  END
