
     RDKit          3D

 29 31  0  0  0  0  0  0  0  0999 V2000
   -6.0770    1.8430    0.9980 C   0  0  0  0  0  0  0  0  0  0  0  0
   -4.6430    2.2170    0.6680 C   0  0  0  0  0  0  0  0  0  0  0  0
   -4.0330    1.0750   -0.0140 C   0  0  0  0  0  0  0  0  0  0  0  0
   -2.9920    0.4000    0.4120 C   0  0  0  0  0  0  0  0  0  0  0  0
   -2.2820    0.7170    1.6710 C   0  0  1  0  0  0  0  0  0  0  0  0
   -2.2970   -0.5110    2.5600 C   0  0  0  0  0  0  0  0  0  0  0  0
   -3.7300   -0.9020    2.8480 C   0  0  0  0  0  0  0  0  0  0  0  0
   -0.8560    1.1330    1.3490 C   0  0  0  0  0  0  0  0  0  0  0  0
   -0.2210    0.2550    0.3390 C   0  0  0  0  0  0  0  0  0  0  0  0
    1.0780    0.0540    0.3970 C   0  0  0  0  0  0  0  0  0  0  0  0
    1.8210    0.7480    1.5090 C   0  0  0  0  0  0  0  0  0  0  0  0
    1.8120   -0.7700   -0.5070 N   0  0  0  0  0  0  0  0  0  0  0  0
    3.1580   -0.3990   -0.7910 C   0  0  0  0  0  0  0  0  0  0  0  0
    3.4610    0.8010   -1.2540 C   0  0  0  0  0  0  0  0  0  0  0  0
    2.4310    1.8380   -1.5080 C   0  0  0  0  0  0  0  0  0  0  0  0
    4.8820    1.1240   -1.5300 C   0  0  0  0  0  0  0  0  0  0  0  0
    5.6650    0.7380   -0.2910 C   0  0  0  0  0  0  0  0  0  0  0  0
    5.4760   -0.7020    0.0800 C   0  0  1  0  0  0  0  0  0  0  0  0
    6.7170   -1.5080   -0.3220 C   0  0  0  0  0  0  0  0  0  0  0  0
    5.3850   -0.8070    1.6000 C   0  0  0  0  0  0  0  0  0  0  0  0
    4.2820   -1.3430   -0.5810 C   0  0  0  0  0  0  0  0  0  0  0  0
   -1.0460   -0.3850   -0.7210 C   0  0  0  0  0  0  0  0  0  0  0  0
   -0.4750   -0.5420   -1.8120 O   0  0  0  0  0  0  0  0  0  0  0  0
   -2.4300   -0.7630   -0.3810 C   0  0  2  0  0  0  0  0  0  0  0  0
   -3.2820   -1.1360   -1.5000 C   0  0  0  0  0  0  0  0  0  0  0  0
   -3.0400   -1.1390   -2.7750 C   0  0  0  0  0  0  0  0  0  0  0  0
   -4.2460   -1.6140   -3.5490 C   0  0  0  0  0  0  0  0  0  0  0  0
   -5.1950   -1.8780   -2.4660 C   0  0  0  0  0  0  0  0  0  0  0  0
   -4.6690   -1.6130   -1.2950 C   0  0  0  0  0  0  0  0  0  0  0  0
  1  2  1  0
  2  3  1  0
  3  4  2  3
  4  5  1  0
  4 24  1  0
  5  6  1  1
  5  8  1  0
  6  7  1  0
  8  9  1  0
  9 10  2  3
  9 22  1  0
 10 11  1  0
 10 12  1  0
 12 13  1  0
 13 14  2  0
 13 21  1  0
 14 15  1  0
 14 16  1  0
 16 17  1  0
 17 18  1  0
 18 19  1  6
 18 20  1  0
 18 21  1  0
 22 23  2  0
 22 24  1  0
 24 25  1  6
 25 26  2  0
 25 29  1  0
 26 27  1  0
 27 28  1  0
 28 29  2  0
M  END
