
     RDKit          3D

 28 29  0  0  0  0  0  0  0  0999 V2000
    2.2700   -1.2360    2.7380 O   0  0  0  0  0  0  0  0  0  0  0  0
    1.3570   -1.0050    1.9130 C   0  0  0  0  0  0  0  0  0  0  0  0
   -0.0400   -1.1000    2.3800 C   0  0  0  0  0  0  0  0  0  0  0  0
   -1.0130   -0.7220    1.4720 O   0  0  0  0  0  0  0  0  0  0  0  0
   -1.2140    0.5150    0.9160 C   0  0  0  0  0  0  0  0  0  0  0  0
   -0.4490    1.4290    1.2540 O   0  0  0  0  0  0  0  0  0  0  0  0
   -2.3210    0.7770   -0.0730 C   0  0  0  0  0  0  0  0  0  0  0  0
   -2.4430    2.0510   -0.5760 C   0  0  0  0  0  0  0  0  0  0  0  0
   -1.7500    3.2530   -0.3890 N   0  0  0  0  0  0  0  0  0  0  0  0
   -2.1470    4.3630   -1.0650 O   0  0  0  0  0  0  0  0  0  0  0  0
   -3.8810    1.9060   -1.7080 S   0  0  0  0  0  0  0  0  0  0  0  0
   -4.1460    0.1870   -1.3810 C   0  0  0  0  0  0  0  0  0  0  0  0
   -3.2080   -0.1520   -0.5060 C   0  0  0  0  0  0  0  0  0  0  0  0
   -3.4580   -1.6050   -0.2510 C   0  0  0  0  0  0  0  0  0  0  0  0
   -2.8490   -2.3990    0.4990 O   0  0  0  0  0  0  0  0  0  0  0  0
   -4.5680   -2.0210   -1.0290 N   0  0  0  0  0  0  0  0  0  0  0  0
   -5.0410   -0.9300   -1.7610 C   0  0  0  0  0  0  0  0  0  0  0  0
   -5.9760   -0.7890   -2.5720 O   0  0  0  0  0  0  0  0  0  0  0  0
    1.6540   -0.6720    0.5980 N   0  0  0  0  0  0  0  0  0  0  0  0
    2.9650   -0.5510    0.0400 C   0  0  0  0  0  0  0  0  0  0  0  0
    3.3520    0.5920   -0.4430 C   0  0  0  0  0  0  0  0  0  0  0  0
    4.6500    0.9270   -1.0560 C   0  0  2  0  0  0  0  0  0  0  0  0
    4.8660    0.3450   -2.2840 F   0  0  0  0  0  0  0  0  0  0  0  0
    5.6600    0.6980   -0.1460 F   0  0  0  0  0  0  0  0  0  0  0  0
    3.8080   -1.7470    0.0390 C   0  0  1  0  0  0  0  0  0  0  0  0
    4.1750   -2.1710    1.3190 F   0  0  0  0  0  0  0  0  0  0  0  0
    3.0860   -2.8010   -0.5800 F   0  0  0  0  0  0  0  0  0  0  0  0
    4.9250   -1.5950   -0.7430 F   0  0  0  0  0  0  0  0  0  0  0  0
  1  2  2  0
  2  3  1  0
  2 19  1  0
  3  4  1  0
  4  5  1  0
  5  6  2  0
  5  7  1  0
  7  8  2  0
  7 13  1  0
  8  9  1  0
  8 11  1  0
  9 10  1  0
 11 12  1  0
 12 13  2  0
 12 17  1  0
 13 14  1  0
 14 15  2  0
 14 16  1  0
 16 17  1  0
 17 18  2  0
 19 20  1  0
 20 21  2  3
 20 25  1  0
 21 22  1  0
 22 23  1  6
 22 24  1  0
 25 26  1  1
 25 27  1  0
 25 28  1  0
M  CHG  1  10  -1
M  END
