
     RDKit          3D

 30 31  0  0  0  0  0  0  0  0999 V2000
   -8.7960    0.3700    0.5170 C   0  0  0  0  0  0  0  0  0  0  0  0
   -7.6340    1.1570    0.4000 N   0  0  0  0  0  0  0  0  0  0  0  0
   -7.7470    2.5310   -0.0980 C   0  0  0  0  0  0  0  0  0  0  0  0
   -6.2970    0.7730    0.7610 C   0  0  0  0  0  0  0  0  0  0  0  0
   -5.5010    1.5240    1.5650 C   0  0  0  0  0  0  0  0  0  0  0  0
   -4.2010    1.2170    1.9190 C   0  0  0  0  0  0  0  0  0  0  0  0
   -3.7040    0.0480    1.3680 C   0  0  0  0  0  0  0  0  0  0  0  0
   -4.4700   -0.6980    0.5360 C   0  0  0  0  0  0  0  0  0  0  0  0
   -3.8960   -1.8520    0.0040 C   0  0  0  0  0  0  0  0  0  0  0  0
   -2.2340   -1.8740   -0.0060 S   0  0  2  0  0  0  0  0  0  0  0  0
   -1.7730   -2.4100   -1.4020 O   0  0  0  0  0  0  0  0  0  0  0  0
   -1.8310   -3.0450    0.9900 O   0  0  0  0  0  0  0  0  0  0  0  0
   -1.1560   -0.7010    0.4150 N   0  0  0  0  0  0  0  0  0  0  0  0
   -0.1900   -0.4510   -0.6470 C   0  0  0  0  0  0  0  0  0  0  0  0
    0.9850   -1.1610    0.0830 C   0  0  0  0  0  0  0  0  0  0  0  0
    2.1210   -1.3100   -0.8270 C   0  0  0  0  0  0  0  0  0  0  0  0
    2.7750    0.0350   -0.9510 C   0  0  0  0  0  0  0  0  0  0  0  0
    3.2950    0.4450    0.4220 C   0  0  0  0  0  0  0  0  0  0  0  0
    4.8050    0.5160    0.4750 C   0  0  0  0  0  0  0  0  0  0  0  0
    5.4890   -0.7440    0.1710 C   0  0  0  0  0  0  0  0  0  0  0  0
    6.9750   -0.7050    0.3240 C   0  0  0  0  0  0  0  0  0  0  0  0
    7.6850    0.2810   -0.5440 C   0  0  0  0  0  0  0  0  0  0  0  0
    7.8450    1.6760   -0.0470 C   0  0  0  0  0  0  0  0  0  0  0  0
    9.3270    1.9860    0.1700 C   0  0  0  0  0  0  0  0  0  0  0  0
   10.0250    2.4600   -0.7510 O   0  0  0  0  0  0  0  0  0  0  0  0
    9.8980    1.7890    1.3810 O   0  0  0  0  0  0  0  0  0  0  0  0
   -4.6290   -2.7720   -0.8000 C   0  0  0  0  0  0  0  0  0  0  0  0
   -5.9140   -2.4010   -1.0680 C   0  0  0  0  0  0  0  0  0  0  0  0
   -6.4150   -1.2720   -0.6010 C   0  0  0  0  0  0  0  0  0  0  0  0
   -5.8110   -0.3830    0.2000 C   0  0  0  0  0  0  0  0  0  0  0  0
  1  2  1  0
  2  3  1  0
  2  4  1  0
  4  5  2  0
  4 30  1  0
  5  6  1  0
  6  7  2  0
  7  8  1  0
  8  9  2  0
  8 30  1  0
  9 10  1  0
  9 27  1  0
 10 11  2  0
 10 12  2  0
 10 13  1  1
 13 14  1  0
 14 15  1  0
 15 16  1  0
 16 17  1  0
 17 18  1  0
 18 19  1  0
 19 20  1  0
 20 21  1  0
 21 22  1  0
 22 23  1  0
 23 24  1  0
 24 25  2  0
 24 26  1  0
 27 28  2  0
 28 29  1  0
 29 30  2  0
M  END
