
     RDKit          3D

 29 29  0  0  0  0  0  0  0  0999 V2000
    5.7470   -2.0650   -0.6110 C   0  0  0  0  0  0  0  0  0  0  0  0
    4.7140   -1.1620   -0.1440 C   0  0  0  0  0  0  0  0  0  0  0  0
    3.0720   -0.9120   -0.9130 S   0  0  0  0  0  0  0  0  0  0  0  0
    2.4810    0.3410    0.3030 C   0  0  0  0  0  0  0  0  0  0  0  0
    1.2130    0.9500    0.2480 N   0  0  0  0  0  0  0  0  0  0  0  0
    0.3000    0.6180   -0.7920 C   0  0  0  0  0  0  0  0  0  0  0  0
    0.6730   -0.2400   -1.6690 O   0  0  0  0  0  0  0  0  0  0  0  0
   -1.0440    1.1550   -0.9790 C   0  0  2  0  0  0  0  0  0  0  0  0
   -0.9640    2.0020   -2.2720 C   0  0  0  0  0  0  0  0  0  0  0  0
   -1.5260    2.0110   -0.0070 O   0  0  0  0  0  0  0  0  0  0  0  0
   -1.7350    1.7670    1.3250 C   0  0  0  0  0  0  0  0  0  0  0  0
   -2.2370    2.8090    2.1230 N   0  0  0  0  0  0  0  0  0  0  0  0
   -1.4650    0.6190    1.7560 O   0  0  0  0  0  0  0  0  0  0  0  0
   -1.9800    0.0350   -1.3130 C   0  0  0  0  0  0  0  0  0  0  0  0
   -1.6480   -0.8210   -2.1700 O   0  0  0  0  0  0  0  0  0  0  0  0
   -3.2540   -0.1240   -0.7030 N   0  0  0  0  0  0  0  0  0  0  0  0
   -4.0750   -1.1930   -1.0560 N   0  0  0  0  0  0  0  0  0  0  0  0
   -4.2370   -2.2670   -0.1570 C   0  0  0  0  0  0  0  0  0  0  0  0
   -3.6230   -2.2290    0.9640 O   0  0  0  0  0  0  0  0  0  0  0  0
   -5.0750   -3.4470   -0.4270 C   0  0  2  0  0  0  0  0  0  0  0  0
   -4.6720   -4.1500   -1.5470 F   0  0  0  0  0  0  0  0  0  0  0  0
   -6.4260   -3.0920   -0.5280 F   0  0  0  0  0  0  0  0  0  0  0  0
    3.5580    0.4310    1.1330 C   0  0  0  0  0  0  0  0  0  0  0  0
    3.4340    1.4160    2.3150 C   0  0  2  0  0  0  0  0  0  0  0  0
    3.2250    2.6900    1.8470 F   0  0  0  0  0  0  0  0  0  0  0  0
    4.5480    1.4130    3.0940 F   0  0  0  0  0  0  0  0  0  0  0  0
    2.3630    0.9620    3.0900 F   0  0  0  0  0  0  0  0  0  0  0  0
    4.6440   -0.2820    0.9380 C   0  0  0  0  0  0  0  0  0  0  0  0
    5.8190   -0.2420    1.7700 O   0  0  0  0  0  0  0  0  0  0  0  0
  1  2  1  0
  2  3  1  0
  2 28  2  0
  3  4  1  0
  4  5  1  0
  4 23  2  0
  5  6  1  0
  6  7  2  0
  6  8  1  0
  8  9  1  6
  8 10  1  0
  8 14  1  0
 10 11  1  0
 11 12  1  0
 11 13  2  0
 14 15  2  0
 14 16  1  0
 16 17  1  0
 17 18  1  0
 18 19  2  0
 18 20  1  0
 20 21  1  6
 20 22  1  0
 23 24  1  0
 23 28  1  0
 24 25  1  6
 24 26  1  0
 24 27  1  0
 28 29  1  0
M  CHG  1  29  -1
M  END
