
     RDKit          3D

 29 32  0  0  0  0  0  0  0  0999 V2000
   -2.2350    4.8990   -0.1760 C   0  0  0  0  0  0  0  0  0  0  0  0
   -2.0760    3.8410    0.8890 C   0  0  0  0  0  0  0  0  0  0  0  0
   -0.8650    2.9350    0.4750 C   0  0  0  0  0  0  0  0  0  0  0  0
   -0.6860    1.9060    1.4800 C   0  0  0  0  0  0  0  0  0  0  0  0
   -0.5390    0.6310    1.3260 C   0  0  0  0  0  0  0  0  0  0  0  0
   -0.3990   -0.1730    2.5730 C   0  0  0  0  0  0  0  0  0  0  0  0
   -1.4600   -1.2430    2.4060 C   0  0  0  0  0  0  0  0  0  0  0  0
   -1.7800   -1.6830    1.2250 C   0  0  0  0  0  0  0  0  0  0  0  0
   -2.8360   -2.7360    1.5130 C   0  0  0  0  0  0  0  0  0  0  0  0
   -3.8780   -2.7790    0.4180 C   0  0  0  0  0  0  0  0  0  0  0  0
   -3.5940   -4.0500   -0.3870 C   0  0  0  0  0  0  0  0  0  0  0  0
   -2.8780   -3.6140   -1.6330 C   0  0  0  0  0  0  0  0  0  0  0  0
   -1.4920   -3.1890   -1.3090 C   0  0  0  0  0  0  0  0  0  0  0  0
   -1.3100   -1.6850   -1.3810 C   0  0  0  0  0  0  0  0  0  0  0  0
   -1.3220   -1.1160   -0.0640 C   0  0  0  0  0  0  0  0  0  0  0  0
   -0.5380   -0.0360    0.0130 C   0  0  0  0  0  0  0  0  0  0  0  0
    0.2360    0.3360   -1.1250 C   0  0  0  0  0  0  0  0  0  0  0  0
    1.6710   -0.0700   -1.2240 C   0  0  2  0  0  0  0  0  0  0  0  0
    1.9680   -1.4000   -1.1790 O   0  0  0  0  0  0  0  0  0  0  0  0
    2.7320    0.6640   -0.5100 C   0  0  2  0  0  0  0  0  0  0  0  0
    2.9900    0.4380    0.8840 C   0  0  0  0  0  0  0  0  0  0  0  0
    3.1210    1.3810    1.8190 C   0  0  0  0  0  0  0  0  0  0  0  0
    3.3820    0.7810    3.1320 C   0  0  0  0  0  0  0  0  0  0  0  0
    3.4030   -0.6600    2.8450 C   0  0  0  0  0  0  0  0  0  0  0  0
    3.1750   -0.8370    1.5610 C   0  0  0  0  0  0  0  0  0  0  0  0
    2.6400    2.0980   -0.9450 C   0  0  0  0  0  0  0  0  0  0  0  0
    2.2510    1.9590   -2.3910 C   0  0  0  0  0  0  0  0  0  0  0  0
    2.0440    0.4830   -2.6620 C   0  0  1  0  0  0  0  0  0  0  0  0
    3.2310   -0.2270   -3.1980 C   0  0  0  0  0  0  0  0  0  0  0  0
  1  2  1  0
  2  3  1  0
  3  4  1  0
  4  5  2  3
  5  6  1  0
  5 16  1  0
  6  7  1  0
  7  8  2  0
  8  9  1  0
  8 15  1  0
  9 10  1  0
 10 11  1  0
 11 12  1  0
 12 13  1  0
 13 14  1  0
 14 15  1  0
 15 16  2  0
 16 17  1  0
 17 18  1  0
 18 19  1  6
 18 20  1  0
 18 28  1  0
 20 21  1  1
 20 26  1  0
 21 22  2  0
 21 25  1  0
 22 23  1  0
 23 24  1  0
 24 25  2  0
 26 27  1  0
 27 28  1  0
 28 29  1  1
M  END
