
     RDKit          3D

 29 31  0  0  0  0  0  0  0  0999 V2000
    7.3060    2.8250    1.4290 C   0  0  0  0  0  0  0  0  0  0  0  0
    7.4720    1.3680    1.1260 C   0  0  0  0  0  0  0  0  0  0  0  0
    6.4110    0.6410    0.7820 C   0  0  0  0  0  0  0  0  0  0  0  0
    5.0990    1.2540    0.7020 C   0  0  0  0  0  0  0  0  0  0  0  0
    4.0320    0.5930    0.3640 C   0  0  0  0  0  0  0  0  0  0  0  0
    2.7260    1.2730    0.3060 C   0  0  0  0  0  0  0  0  0  0  0  0
    2.6010    2.5990   -0.2750 C   0  0  0  0  0  0  0  0  0  0  0  0
    1.6810    0.5820    0.8340 C   0  0  0  0  0  0  0  0  0  0  0  0
    2.1200   -0.7490    1.3650 C   0  0  1  0  0  0  0  0  0  0  0  0
    1.2300   -1.3990    2.1580 O   0  0  0  0  0  0  0  0  0  0  0  0
    2.6930   -1.4950    0.2060 C   0  0  1  0  0  0  0  0  0  0  0  0
    1.9750   -1.4910   -1.0700 C   0  0  0  0  0  0  0  0  0  0  0  0
    0.6240   -1.9950   -1.2740 C   0  0  0  0  0  0  0  0  0  0  0  0
   -0.5510   -1.3410   -0.6340 C   0  0  0  0  0  0  0  0  0  0  0  0
   -1.8390   -2.0470   -1.0410 C   0  0  0  0  0  0  0  0  0  0  0  0
   -3.0680   -1.4150   -0.3340 C   0  0  2  0  0  0  0  0  0  0  0  0
   -3.1060   -0.0200   -0.7370 C   0  0  0  0  0  0  0  0  0  0  0  0
   -4.1900    0.9180   -0.3650 C   0  0  1  0  0  0  0  0  0  0  0  0
   -4.3630    1.1180    1.0880 C   0  0  0  0  0  0  0  0  0  0  0  0
   -5.3170    2.2220    1.3740 C   0  0  0  0  0  0  0  0  0  0  0  0
   -5.6850    3.0840    0.4740 C   0  0  0  0  0  0  0  0  0  0  0  0
   -5.1950    3.0670   -0.9410 C   0  0  0  0  0  0  0  0  0  0  0  0
   -3.8600    2.3130   -0.9800 C   0  0  0  0  0  0  0  0  0  0  0  0
   -2.8670   -1.7180    1.1380 C   0  0  0  0  0  0  0  0  0  0  0  0
   -3.9700   -2.6240    1.5560 C   0  0  0  0  0  0  0  0  0  0  0  0
   -4.2210   -3.3900    0.2430 C   0  0  0  0  0  0  0  0  0  0  0  0
   -4.2820   -2.2250   -0.7180 C   0  0  0  0  0  0  0  0  0  0  0  0
    4.1120   -0.8650    0.0120 C   0  0  1  0  0  0  0  0  0  0  0  0
    4.5820   -1.0010   -1.3990 C   0  0  0  0  0  0  0  0  0  0  0  0
  1  2  1  0
  2  3  2  3
  3  4  1  0
  4  5  2  3
  5  6  1  0
  5 28  1  0
  6  7  1  0
  6  8  2  0
  8  9  1  0
  9 10  1  6
  9 11  1  0
 11 12  1  6
 11 28  1  0
 12 13  1  0
 13 14  1  0
 14 15  1  0
 16 15  1  6
 16 17  1  0
 16 24  1  0
 16 27  1  0
 18 17  1  1
 18 19  1  0
 18 23  1  0
 19 20  1  0
 20 21  2  0
 21 22  1  0
 22 23  1  0
 24 25  1  0
 25 26  1  0
 26 27  1  0
 28 29  1  6
M  END
