
     RDKit          3D

 15 15  0  0  0  0  0  0  0  0999 V2000
    0.7760    1.9490   -1.8660 O   0  0  0  0  0  0  0  0  0  0  0  0
   -0.1010    1.8670   -0.9760 C   0  0  0  0  0  0  0  0  0  0  0  0
    0.3100    2.2570    0.3890 C   0  0  0  0  0  0  0  0  0  0  0  0
    1.4300    1.5960    0.8420 O   0  0  0  0  0  0  0  0  0  0  0  0
    2.2770    0.7280   -0.3640 P   0  0  0  0  0  0  0  0  0  0  0  0
    3.9360    1.1700   -0.4910 O   0  0  0  0  0  0  0  0  0  0  0  0
    2.1260   -0.9770   -0.0920 O   0  0  0  0  0  0  0  0  0  0  0  0
    1.4950   -1.2630    1.0070 O   0  0  0  0  0  0  0  0  0  0  0  0
    0.4930   -2.2370    0.8140 C   0  0  0  0  0  0  0  0  0  0  0  0
    0.0160   -2.1550   -0.5960 C   0  0  0  0  0  0  0  0  0  0  0  0
   -1.2440   -1.6090   -0.7420 O   0  0  0  0  0  0  0  0  0  0  0  0
   -1.4820   -0.5560    0.1480 C   0  0  0  0  0  0  0  0  0  0  0  0
   -2.1730    0.5840   -0.5130 C   0  0  1  0  0  0  0  0  0  0  0  0
   -2.9380    1.3440    0.3930 O   0  0  0  0  0  0  0  0  0  0  0  0
   -1.3580    1.4510   -1.2220 O   0  0  0  0  0  0  0  0  0  0  0  0
  1  2  2  0
  2  3  1  0
  2 15  1  0
  3  4  1  0
  4  5  1  0
  5  6  1  0
  5  7  1  0
  7  8  1  0
  8  9  1  0
  9 10  1  0
 10 11  1  0
 11 12  1  0
 12 13  1  0
 13 14  1  1
 13 15  1  0
M  END
