
     RDKit          3D

 15 15  0  0  0  0  0  0  0  0999 V2000
    1.4700   -1.5170    1.9780 C   0  0  0  0  0  0  0  0  0  0  0  0
    0.4770   -0.8620    1.3370 O   0  0  0  0  0  0  0  0  0  0  0  0
    0.7420   -0.1280    0.2590 C   0  0  2  0  0  0  0  0  0  0  0  0
   -0.5560    0.5450   -0.2030 C   0  0  1  0  0  0  0  0  0  0  0  0
   -1.5010   -0.4630   -0.5130 O   0  0  0  0  0  0  0  0  0  0  0  0
   -2.1180   -0.5740   -1.7440 C   0  0  0  0  0  0  0  0  0  0  0  0
   -1.8310    0.2590   -2.6420 O   0  0  0  0  0  0  0  0  0  0  0  0
   -3.0410   -1.5760   -2.0120 O   0  0  0  0  0  0  0  0  0  0  0  0
   -1.1620    1.5010    1.2730 P   0  0  0  0  0  0  0  0  0  0  0  0
   -1.8430    0.4310    2.4580 O   0  0  0  0  0  0  0  0  0  0  0  0
   -2.2200    2.7760    0.8480 O   0  0  0  0  0  0  0  0  0  0  0  0
    1.3620   -0.8030   -0.9230 C   0  0  0  0  0  0  0  0  0  0  0  0
    1.6840    0.3330   -1.7020 O   0  0  0  0  0  0  0  0  0  0  0  0
    2.2630    1.1590   -0.7540 C   0  0  0  0  0  0  0  0  0  0  0  0
    1.6430    0.9330    0.4530 O   0  0  0  0  0  0  0  0  0  0  0  0
  1  2  1  0
  3  2  1  1
  3  4  1  0
  3 12  1  0
  3 15  1  0
  4  5  1  1
  4  9  1  0
  5  6  1  0
  6  7  2  0
  6  8  1  0
  9 10  1  0
  9 11  1  0
 12 13  1  0
 13 14  1  0
 14 15  1  0
M  END
