
     RDKit          3D

 10 10  0  0  0  0  0  0  0  0999 V2000
    4.2250    0.9750   -0.3320 O   0  0  0  0  0  0  0  0  0  0  0  0
    3.7980   -0.0980    0.2750 O   0  0  0  0  0  0  0  0  0  0  0  0
    2.6790   -0.4800   -0.3080 O   0  0  0  0  0  0  0  0  0  0  0  0
    1.6150   -0.0740    0.4680 C   0  0  0  0  0  0  0  0  0  0  0  0
    0.3310   -0.5180   -0.2100 C   0  0  0  0  0  0  0  0  0  0  0  0
   -0.7330   -0.1080    0.5730 O   0  0  0  0  0  0  0  0  0  0  0  0
   -1.9180   -0.5020   -0.0250 C   0  0  2  0  0  0  0  0  0  0  0  0
   -2.9670    0.5750   -0.1470 C   0  0  0  0  0  0  0  0  0  0  0  0
   -3.7890   -0.5150    0.1230 O   0  0  0  0  0  0  0  0  0  0  0  0
   -2.8220   -1.1080    0.8260 O   0  0  0  0  0  0  0  0  0  0  0  0
  1  2  1  0
  2  3  1  0
  3  4  1  0
  4  5  1  0
  5  6  1  0
  7  6  1  1
  7  8  1  0
  7 10  1  0
  8  9  1  0
  9 10  1  0
M  END
