
     RDKit          3D

 15 15  0  0  0  0  0  0  0  0999 V2000
   -2.2730    0.7600    2.8150 O   0  0  0  0  0  0  0  0  0  0  0  0
   -3.2060    0.7450    1.9720 C   0  0  0  0  0  0  0  0  0  0  0  0
   -2.8100    0.5460    0.6570 O   0  0  0  0  0  0  0  0  0  0  0  0
   -1.4890    0.3770    0.2990 C   0  0  1  0  0  0  0  0  0  0  0  0
   -1.1800   -0.9700   -0.3310 C   0  0  0  0  0  0  0  0  0  0  0  0
    0.3140   -0.9170   -0.6260 C   0  0  2  0  0  0  0  0  0  0  0  0
    0.8820   -2.1660   -0.6850 O   0  0  0  0  0  0  0  0  0  0  0  0
    0.9400   -0.1510    0.3830 O   0  0  0  0  0  0  0  0  0  0  0  0
    2.6230   -0.0900    0.0530 P   0  0  0  0  0  0  0  0  0  0  0  0
    3.5680   -0.5810    1.4390 O   0  0  0  0  0  0  0  0  0  0  0  0
    3.1390    1.4610   -0.5130 O   0  0  0  0  0  0  0  0  0  0  0  0
    0.4720   -0.1310   -1.9050 C   0  0  0  0  0  0  0  0  0  0  0  0
   -0.2460    1.0740   -1.7490 O   0  0  0  0  0  0  0  0  0  0  0  0
   -0.9670    1.4110   -0.6240 C   0  0  0  0  0  0  0  0  0  0  0  0
   -1.2070    2.6140   -0.3420 O   0  0  0  0  0  0  0  0  0  0  0  0
  1  2  2  0
  2  3  1  0
  4  3  1  6
  4  5  1  0
  4 14  1  0
  5  6  1  0
  6  7  1  6
  6  8  1  0
  6 12  1  0
  8  9  1  0
  9 10  1  0
  9 11  1  0
 12 13  1  0
 13 14  1  0
 14 15  2  0
M  END
