
     RDKit          3D

 16 16  0  0  0  0  0  0  0  0999 V2000
   -0.2420    1.6540    1.2430 O   0  0  0  0  0  0  0  0  0  0  0  0
   -0.5250    1.0070    0.1800 C   0  0  0  0  0  0  0  0  0  0  0  0
   -1.6760    1.2510   -0.5550 O   0  0  0  0  0  0  0  0  0  0  0  0
   -2.3920    0.1570   -1.0950 C   0  0  2  0  0  0  0  0  0  0  0  0
   -3.7500    0.1440   -0.4660 C   0  0  1  0  0  0  0  0  0  0  0  0
   -4.5370   -0.9140   -0.9450 O   0  0  0  0  0  0  0  0  0  0  0  0
   -3.6390    0.0420    0.9080 O   0  0  0  0  0  0  0  0  0  0  0  0
   -1.6820   -1.0220   -0.8100 O   0  0  0  0  0  0  0  0  0  0  0  0
   -0.3850   -0.8740   -1.3300 C   0  0  0  0  0  0  0  0  0  0  0  0
    0.3880   -0.0530   -0.3200 C   0  0  2  0  0  0  0  0  0  0  0  0
    0.8420   -0.8720    0.7100 O   0  0  0  0  0  0  0  0  0  0  0  0
    2.5540   -0.7510    0.8170 P   0  0  0  0  0  0  0  0  0  0  0  0
    3.3320   -0.8620   -0.7250 O   0  0  0  0  0  0  0  0  0  0  0  0
    3.0940    0.8410    1.6140 C   0  0  0  0  0  0  0  0  0  0  0  0
    4.4270    1.0440    1.2390 O   0  0  0  0  0  0  0  0  0  0  0  0
    5.1840    0.0420    1.6540 O   0  0  0  0  0  0  0  0  0  0  0  0
  1  2  2  0
  2  3  1  0
  2 10  1  0
  4  3  1  1
  4  5  1  0
  4  8  1  0
  5  6  1  6
  5  7  1  0
  8  9  1  0
  9 10  1  0
 10 11  1  1
 11 12  1  0
 12 13  1  0
 12 14  1  0
 14 15  1  0
 15 16  1  0
M  END
