
     RDKit          3D

 15 14  0  0  0  0  0  0  0  0999 V2000
    0.2910    2.0700    0.9210 C   0  0  0  0  0  0  0  0  0  0  0  0
    0.2490    1.0830   -0.2550 C   0  0  1  0  0  0  0  0  0  0  0  0
    0.3110    1.7860   -1.4540 O   0  0  0  0  0  0  0  0  0  0  0  0
    1.4450    0.2460   -0.1300 C   0  0  0  0  0  0  0  0  0  0  0  0
    2.3040    0.2690   -1.0460 O   0  0  0  0  0  0  0  0  0  0  0  0
    1.6670   -0.5850    0.9870 O   0  0  0  0  0  0  0  0  0  0  0  0
    2.8050   -1.3680    1.0840 C   0  0  0  0  0  0  0  0  0  0  0  0
    3.6320   -1.3070    0.1370 O   0  0  0  0  0  0  0  0  0  0  0  0
    3.0680   -2.2020    2.1620 O   0  0  0  0  0  0  0  0  0  0  0  0
   -1.0020    0.2850   -0.1910 C   0  0  0  0  0  0  0  0  0  0  0  0
   -1.2940   -0.4320    0.7820 O   0  0  0  0  0  0  0  0  0  0  0  0
   -1.8770    0.3390   -1.2490 O   0  0  0  0  0  0  0  0  0  0  0  0
   -3.3890   -0.5770   -1.2600 P   0  0  0  0  0  0  0  0  0  0  0  0
   -3.3180   -1.9280   -2.3140 O   0  0  0  0  0  0  0  0  0  0  0  0
   -3.7870   -1.0430    0.3660 O   0  0  0  0  0  0  0  0  0  0  0  0
  2  1  1  1
  2  3  1  0
  2  4  1  0
  2 10  1  0
  4  5  2  0
  4  6  1  0
  6  7  1  0
  7  8  2  0
  7  9  1  0
 10 11  2  0
 10 12  1  0
 12 13  1  0
 13 14  1  0
 13 15  1  0
M  END
