
     RDKit          3D

 16 16  0  0  0  0  0  0  0  0999 V2000
   -4.3680    2.3670   -0.3120 O   0  0  0  0  0  0  0  0  0  0  0  0
   -3.5770    1.6070   -1.4120 P   0  0  0  0  0  0  0  0  0  0  0  0
   -1.8670    1.5520   -1.2960 O   0  0  0  0  0  0  0  0  0  0  0  0
   -1.3980    0.6730   -0.3540 C   0  0  2  0  0  0  0  0  0  0  0  0
    0.0770    0.7080   -0.3420 C   0  0  0  0  0  0  0  0  0  0  0  0
    0.7040    1.4620   -1.1140 O   0  0  0  0  0  0  0  0  0  0  0  0
    0.8500   -0.0780    0.5130 O   0  0  0  0  0  0  0  0  0  0  0  0
    2.2530   -0.0490    0.5310 C   0  0  0  0  0  0  0  0  0  0  0  0
    2.8570   -0.4220   -0.7640 C   0  0  0  0  0  0  0  0  0  0  0  0
    2.1940   -0.7370   -1.7860 O   0  0  0  0  0  0  0  0  0  0  0  0
    4.2310   -0.4310   -0.8710 O   0  0  0  0  0  0  0  0  0  0  0  0
   -1.8410   -0.6160   -0.6260 O   0  0  0  0  0  0  0  0  0  0  0  0
   -1.6370   -1.3260    0.5560 C   0  0  0  0  0  0  0  0  0  0  0  0
   -1.7290   -0.2980    1.6240 C   0  0  0  0  0  0  0  0  0  0  0  0
   -1.6290   -0.5000    2.8580 O   0  0  0  0  0  0  0  0  0  0  0  0
   -1.9450    0.9030    0.9370 O   0  0  0  0  0  0  0  0  0  0  0  0
  1  2  2  0
  2  3  1  0
  4  3  1  6
  4  5  1  0
  4 12  1  0
  4 16  1  0
  5  6  2  0
  5  7  1  0
  7  8  1  0
  8  9  1  0
  9 10  2  0
  9 11  1  0
 12 13  1  0
 13 14  1  0
 14 15  2  0
 14 16  1  0
M  END
