
     RDKit          3D

 19 18  0  0  0  0  0  0  0  0999 V2000
    5.4820   -0.9830    1.1670 C   0  0  0  0  0  0  0  0  0  0  0  0
    4.2260   -0.1650    0.8720 C   0  0  0  0  0  0  0  0  0  0  0  0
    4.1910    0.0930   -0.6220 C   0  0  0  0  0  0  0  0  0  0  0  0
    2.9850    0.9270   -1.0280 C   0  0  0  0  0  0  0  0  0  0  0  0
    1.7580    0.1920   -0.6300 C   0  0  0  0  0  0  0  0  0  0  0  0
    0.5070    0.8770   -0.9370 N   0  0  0  0  0  0  0  0  0  0  0  0
    0.2400    0.9550   -2.3380 C   0  0  0  0  0  0  0  0  0  0  0  0
   -0.4940    0.2050   -0.1550 C   0  0  0  0  0  0  0  0  0  0  0  0
   -1.8540    0.8010   -0.1610 C   0  0  0  0  0  0  0  0  0  0  0  0
   -2.7900   -0.0100    0.7140 C   0  0  2  0  0  0  0  0  0  0  0  0
   -2.2480   -0.0110    1.9970 O   0  0  0  0  0  0  0  0  0  0  0  0
   -3.1100   -1.6620    0.1270 P   0  0  2  0  0  0  0  0  0  0  0  0
   -1.9420   -2.6070    0.2380 O   0  0  0  0  0  0  0  0  0  0  0  0
   -3.6310   -1.6940   -1.4690 O   0  0  0  0  0  0  0  0  0  0  0  0
   -4.3450   -2.3230    1.1130 O   0  0  0  0  0  0  0  0  0  0  0  0
   -4.3910    0.8380    0.8870 P   0  0  2  0  0  0  0  0  0  0  0  0
   -5.1420    0.9570   -0.3900 O   0  0  0  0  0  0  0  0  0  0  0  0
   -4.1170    2.3450    1.6210 O   0  0  0  0  0  0  0  0  0  0  0  0
   -5.2920   -0.0720    2.0160 O   0  0  0  0  0  0  0  0  0  0  0  0
  1  2  1  0
  2  3  1  0
  3  4  1  0
  4  5  1  0
  5  6  1  0
  6  7  1  0
  6  8  1  0
  8  9  1  0
  9 10  1  0
 10 11  1  1
 10 12  1  0
 10 16  1  0
 12 13  2  0
 12 14  1  6
 12 15  1  0
 16 17  2  0
 16 18  1  1
 16 19  1  0
M  END
