
     RDKit          3D

 31 33  0  0  0  0  0  0  0  0999 V2000
   -3.9560    3.7420   -2.3730 C   0  0  0  0  0  0  0  0  0  0  0  0
   -2.4400    3.7070   -2.4960 C   0  0  0  0  0  0  0  0  0  0  0  0
   -1.9860    2.3940   -2.0170 N   0  0  0  0  0  0  0  0  0  0  0  0
   -2.4360    1.2130   -2.6520 C   0  0  0  0  0  0  0  0  0  0  0  0
   -3.2230    1.2980   -3.6250 O   0  0  0  0  0  0  0  0  0  0  0  0
   -1.9990   -0.1050   -2.1950 C   0  0  0  0  0  0  0  0  0  0  0  0
   -1.0820   -0.0040   -1.0490 N   0  0  0  0  0  0  0  0  0  0  0  0
    0.2180    0.1010   -1.0920 N   0  0  0  0  0  0  0  0  0  0  0  0
    0.8020    0.1850    0.0940 C   0  0  0  0  0  0  0  0  0  0  0  0
    2.1500    0.3070    0.5170 C   0  0  0  0  0  0  0  0  0  0  0  0
    2.2610    0.3500    1.8510 O   0  0  0  0  0  0  0  0  0  0  0  0
    3.4230    0.3960   -0.0480 N   0  0  0  0  0  0  0  0  0  0  0  0
    4.5190    0.4890    0.9700 C   0  0  0  0  0  0  0  0  0  0  0  0
    5.8460    0.5280    0.4810 C   0  0  0  0  0  0  0  0  0  0  0  0
    7.0120    0.5840    1.4710 C   0  0  0  0  0  0  0  0  0  0  0  0
    6.8990   -0.5560    2.2380 F   0  0  0  0  0  0  0  0  0  0  0  0
    6.1110    0.5140   -0.8060 C   0  0  0  0  0  0  0  0  0  0  0  0
    5.0500    0.4530   -1.7710 C   0  0  0  0  0  0  0  0  0  0  0  0
    3.7750    0.4010   -1.3990 C   0  0  0  0  0  0  0  0  0  0  0  0
    2.7320    0.3800   -2.4970 C   0  0  2  0  0  0  0  0  0  0  0  0
    3.4520    0.2100   -3.7180 F   0  0  0  0  0  0  0  0  0  0  0  0
    2.0900    1.5700   -2.5790 F   0  0  0  0  0  0  0  0  0  0  0  0
   -0.3020    0.1210    0.9870 C   0  0  0  0  0  0  0  0  0  0  0  0
   -1.4380    0.0050    0.2360 C   0  0  0  0  0  0  0  0  0  0  0  0
   -2.8450   -0.0980    0.7880 C   0  0  0  0  0  0  0  0  0  0  0  0
   -3.1000   -1.3720    1.3530 N   0  0  0  0  0  0  0  0  0  0  0  0
   -2.2140   -1.7320    2.4300 C   0  0  0  0  0  0  0  0  0  0  0  0
   -2.7160   -2.9620    3.1640 C   0  0  0  0  0  0  0  0  0  0  0  0
   -2.9260   -4.0690    2.2480 N   0  0  0  0  0  0  0  0  0  0  0  0
   -3.7650   -3.7200    1.1470 C   0  0  0  0  0  0  0  0  0  0  0  0
   -3.2310   -2.4740    0.4610 C   0  0  0  0  0  0  0  0  0  0  0  0
  1  2  1  0
  2  3  1  0
  3  4  1  0
  4  5  2  0
  4  6  1  0
  6  7  1  0
  7  8  1  0
  7 24  1  0
  8  9  2  0
  9 10  1  0
  9 23  1  0
 10 11  2  0
 10 12  1  0
 12 13  1  0
 12 19  1  0
 13 14  1  0
 14 15  1  0
 14 17  2  0
 15 16  1  0
 17 18  1  0
 18 19  2  0
 19 20  1  0
 20 21  1  6
 20 22  1  0
 23 24  2  0
 24 25  1  0
 25 26  1  0
 26 27  1  0
 26 31  1  0
 27 28  1  0
 28 29  1  0
 29 30  1  0
 30 31  1  0
M  END
