
     RDKit          3D

 29 31  0  0  0  0  0  0  0  0999 V2000
   -6.2280   -1.4890    0.2340 C   0  0  0  0  0  0  0  0  0  0  0  0
   -5.2300   -0.3410    0.3630 C   0  0  1  0  0  0  0  0  0  0  0  0
   -3.9310   -0.8060   -0.2120 C   0  0  0  0  0  0  0  0  0  0  0  0
   -3.0740    0.3570   -0.6600 C   0  0  2  0  0  0  0  0  0  0  0  0
   -1.6030    0.0860   -0.4230 C   0  0  0  0  0  0  0  0  0  0  0  0
   -1.1910   -1.0910   -1.1620 N   0  0  0  0  0  0  0  0  0  0  0  0
    0.1690   -1.4980   -1.0570 C   0  0  0  0  0  0  0  0  0  0  0  0
    0.6380   -2.6120   -1.7180 C   0  0  0  0  0  0  0  0  0  0  0  0
    1.9430   -3.0170   -1.6220 C   0  0  0  0  0  0  0  0  0  0  0  0
    2.8880   -2.3100   -0.8330 C   0  0  0  0  0  0  0  0  0  0  0  0
    4.1810   -2.9740   -0.6220 C   0  0  0  0  0  0  0  0  0  0  0  0
    4.5480   -3.9050   -1.4000 O   0  0  0  0  0  0  0  0  0  0  0  0
    5.0480   -2.6630    0.3950 O   0  0  0  0  0  0  0  0  0  0  0  0
    2.4370   -1.2120   -0.1890 C   0  0  0  0  0  0  0  0  0  0  0  0
    3.3410   -0.2680    0.4410 C   0  0  0  0  0  0  0  0  0  0  0  0
    4.5690   -0.0850    0.0290 C   0  0  0  0  0  0  0  0  0  0  0  0
    5.5450    0.8260    0.5990 C   0  0  0  0  0  0  0  0  0  0  0  0
    6.4150    1.4100   -0.1720 C   0  0  0  0  0  0  0  0  0  0  0  0
    6.4730    1.2030   -1.6300 C   0  0  0  0  0  0  0  0  0  0  0  0
    8.0870    0.5080   -1.9760 Cl  0  0  0  0  0  0  0  0  0  0  0  0
    5.6450    1.1550    1.9710 O   0  0  0  0  0  0  0  0  0  0  0  0
    4.5930    1.0120    2.9290 C   0  0  0  0  0  0  0  0  0  0  0  0
    3.2620    1.4130    2.3180 C   0  0  0  0  0  0  0  0  0  0  0  0
    2.6960    0.3840    1.5230 O   0  0  0  0  0  0  0  0  0  0  0  0
    1.0760   -0.8140   -0.3010 C   0  0  0  0  0  0  0  0  0  0  0  0
   -3.5350    1.5820    0.0980 C   0  0  0  0  0  0  0  0  0  0  0  0
   -4.8740    1.9950   -0.4720 C   0  0  2  0  0  0  0  0  0  0  0  0
   -5.4170    3.2320    0.2180 C   0  0  0  0  0  0  0  0  0  0  0  0
   -5.8180    0.8310   -0.3640 C   0  0  0  0  0  0  0  0  0  0  0  0
  2  1  1  6
  2  3  1  0
  2 29  1  0
  3  4  1  0
  4  5  1  1
  4 26  1  0
  5  6  1  0
  6  7  1  0
  7  8  2  0
  7 25  1  0
  8  9  1  0
  9 10  2  0
 10 11  1  0
 10 14  1  0
 11 12  2  0
 11 13  1  0
 14 15  1  0
 14 25  2  0
 15 16  2  0
 15 24  1  0
 16 17  1  0
 17 18  2  3
 17 21  1  0
 18 19  1  0
 19 20  1  0
 21 22  1  0
 22 23  1  0
 23 24  1  0
 26 27  1  0
 27 28  1  1
 27 29  1  0
M  END
