
     RDKit          3D

 31 33  0  0  0  0  0  0  0  0999 V2000
   -4.8590   -3.5940    1.4500 C   0  0  0  0  0  0  0  0  0  0  0  0
   -4.8750   -2.3170    2.2470 C   0  0  0  0  0  0  0  0  0  0  0  0
   -4.2180   -1.2100    1.6360 N   0  0  0  0  0  0  0  0  0  0  0  0
   -2.8510   -1.3110    1.1710 C   0  0  0  0  0  0  0  0  0  0  0  0
   -2.1140   -2.4060    1.1940 N   0  0  0  0  0  0  0  0  0  0  0  0
   -0.9280   -2.0330    0.6780 N   0  0  0  0  0  0  0  0  0  0  0  0
   -0.9360   -0.7400    0.3490 C   0  0  0  0  0  0  0  0  0  0  0  0
    0.0940    0.0810   -0.2240 C   0  0  0  0  0  0  0  0  0  0  0  0
    1.3260   -0.2960   -0.5670 C   0  0  0  0  0  0  0  0  0  0  0  0
    1.9000   -1.5400   -0.4630 C   0  0  0  0  0  0  0  0  0  0  0  0
    2.9790   -2.1740   -0.6800 C   0  0  0  0  0  0  0  0  0  0  0  0
    4.1960   -1.4460   -1.2530 C   0  0  0  0  0  0  0  0  0  0  0  0
    4.1810   -0.0510   -1.4950 C   0  0  0  0  0  0  0  0  0  0  0  0
    4.1890    1.1110   -1.6920 N   0  0  0  0  0  0  0  0  0  0  0  0
    5.2540   -2.1610   -1.4550 C   0  0  0  0  0  0  0  0  0  0  0  0
    5.2890   -3.5370   -1.1630 N   0  0  0  0  0  0  0  0  0  0  0  0
    6.0250   -3.9460    0.0320 C   0  0  1  0  0  0  0  0  0  0  0  0
    5.4380   -3.4230    1.1630 F   0  0  0  0  0  0  0  0  0  0  0  0
    6.0950   -5.3100    0.1350 F   0  0  0  0  0  0  0  0  0  0  0  0
    7.3320   -3.4380   -0.0470 F   0  0  0  0  0  0  0  0  0  0  0  0
   -0.2570    1.4590   -0.5100 N   0  0  0  0  0  0  0  0  0  0  0  0
   -1.3790    1.7010   -1.4150 C   0  0  0  0  0  0  0  0  0  0  0  0
   -2.2950    2.7800   -0.9400 C   0  0  0  0  0  0  0  0  0  0  0  0
   -1.5680    3.9740   -0.4330 C   0  0  0  0  0  0  0  0  0  0  0  0
   -2.0060    5.2050   -0.3590 C   0  0  0  0  0  0  0  0  0  0  0  0
   -0.9350    6.0520    0.2110 C   0  0  0  0  0  0  0  0  0  0  0  0
    0.1460    5.0760    0.4330 C   0  0  0  0  0  0  0  0  0  0  0  0
   -0.2060    3.8700    0.0630 C   0  0  0  0  0  0  0  0  0  0  0  0
    0.4320    2.5600    0.0090 C   0  0  0  0  0  0  0  0  0  0  0  0
    1.6070    2.4200    0.4300 O   0  0  0  0  0  0  0  0  0  0  0  0
   -2.1670   -0.3130    0.6730 O   0  0  0  0  0  0  0  0  0  0  0  0
  1  2  1  0
  2  3  1  0
  3  4  1  0
  4  5  2  0
  4 31  1  0
  5  6  1  0
  6  7  2  0
  7  8  1  0
  7 31  1  0
  8  9  2  3
  8 21  1  0
  9 10  1  0
 10 11  2  3
 11 12  1  0
 12 13  1  0
 12 15  2  3
 13 14  3  0
 15 16  1  0
 16 17  1  0
 17 18  1  1
 17 19  1  0
 17 20  1  0
 21 22  1  0
 21 29  1  0
 22 23  1  0
 23 24  1  0
 24 25  2  0
 24 28  1  0
 25 26  1  0
 26 27  1  0
 27 28  2  0
 28 29  1  0
 29 30  2  0
M  END
