
     RDKit          3D

 31 33  0  0  0  0  0  0  0  0999 V2000
   -5.1070   -0.2360    1.8720 C   0  0  0  0  0  0  0  0  0  0  0  0
   -5.3670   -0.8130    0.7040 C   0  0  0  0  0  0  0  0  0  0  0  0
   -5.2550   -0.0960   -0.5570 C   0  0  0  0  0  0  0  0  0  0  0  0
   -5.5350   -0.7540   -1.6770 C   0  0  0  0  0  0  0  0  0  0  0  0
   -5.9530   -2.1700   -1.7080 C   0  0  1  0  0  0  0  0  0  0  0  0
   -4.9650   -2.9840   -1.1700 F   0  0  0  0  0  0  0  0  0  0  0  0
   -7.1130   -2.4080   -0.9980 F   0  0  0  0  0  0  0  0  0  0  0  0
   -6.2150   -2.5670   -3.0070 F   0  0  0  0  0  0  0  0  0  0  0  0
   -4.8830    1.2590   -0.5420 N   0  0  0  0  0  0  0  0  0  0  0  0
   -5.6430    2.3340   -1.2170 C   0  0  0  0  0  0  0  0  0  0  0  0
   -5.6030    3.4170   -0.1720 C   0  0  0  0  0  0  0  0  0  0  0  0
   -4.3180    3.2670    0.4510 N   0  0  0  0  0  0  0  0  0  0  0  0
   -3.8070    1.9600    0.0570 C   0  0  0  0  0  0  0  0  0  0  0  0
   -2.5700    1.5770    0.2320 C   0  0  0  0  0  0  0  0  0  0  0  0
   -1.9260    0.3480   -0.1280 C   0  0  0  0  0  0  0  0  0  0  0  0
   -2.5420   -0.5620   -0.7070 O   0  0  0  0  0  0  0  0  0  0  0  0
   -0.5140    0.0750    0.1570 C   0  0  0  0  0  0  0  0  0  0  0  0
    0.0690   -1.0470   -0.1710 C   0  0  0  0  0  0  0  0  0  0  0  0
    1.4390   -1.3070    0.1070 N   0  0  0  0  0  0  0  0  0  0  0  0
    2.2400   -0.4260    0.7260 C   0  0  0  0  0  0  0  0  0  0  0  0
    3.4770   -0.9900    0.8320 C   0  0  0  0  0  0  0  0  0  0  0  0
    4.7020   -0.4110    1.4400 C   0  0  0  0  0  0  0  0  0  0  0  0
    5.4700    0.3220    0.4820 N   0  0  0  0  0  0  0  0  0  0  0  0
    5.9210   -0.4550   -0.6320 C   0  0  0  0  0  0  0  0  0  0  0  0
    6.9760   -1.4630   -0.3050 C   0  0  0  0  0  0  0  0  0  0  0  0
    7.5590   -1.2910    0.9950 N   0  0  0  0  0  0  0  0  0  0  0  0
    7.5740   -0.0080    1.6080 C   0  0  0  0  0  0  0  0  0  0  0  0
    8.3940    0.2690    2.5090 O   0  0  0  0  0  0  0  0  0  0  0  0
    6.5790    0.9830    1.1350 C   0  0  0  0  0  0  0  0  0  0  0  0
    3.3860   -2.2200    0.2620 C   0  0  0  0  0  0  0  0  0  0  0  0
    2.1350   -2.3900   -0.1720 N   0  0  0  0  0  0  0  0  0  0  0  0
  1  2  2  0
  2  3  1  0
  3  4  2  3
  3  9  1  0
  4  5  1  0
  5  6  1  1
  5  7  1  0
  5  8  1  0
  9 10  1  0
  9 13  1  0
 10 11  1  0
 11 12  1  0
 12 13  1  0
 13 14  2  3
 14 15  1  0
 15 16  2  0
 15 17  1  0
 17 18  2  3
 18 19  1  0
 19 20  1  0
 19 31  1  0
 20 21  2  0
 21 22  1  0
 21 30  1  0
 22 23  1  0
 23 24  1  0
 23 29  1  0
 24 25  1  0
 25 26  1  0
 26 27  1  0
 27 28  2  0
 27 29  1  0
 30 31  2  0
M  END
