
     RDKit          3D

 29 31  0  0  0  0  0  0  0  0999 V2000
    8.1050    2.7300    1.3760 C   0  0  0  0  0  0  0  0  0  0  0  0
    6.7630    2.2430    1.1950 O   0  0  0  0  0  0  0  0  0  0  0  0
    6.5380    1.0680    0.5020 C   0  0  0  0  0  0  0  0  0  0  0  0
    7.5530    0.4780    0.0560 O   0  0  0  0  0  0  0  0  0  0  0  0
    5.2290    0.4810    0.2580 C   0  0  0  0  0  0  0  0  0  0  0  0
    4.0710    1.0920    0.7080 C   0  0  0  0  0  0  0  0  0  0  0  0
    2.8360    0.4860    0.4470 C   0  0  0  0  0  0  0  0  0  0  0  0
    2.7060   -0.6910   -0.2370 C   0  0  0  0  0  0  0  0  0  0  0  0
    1.3870   -1.2650   -0.5090 C   0  0  0  0  0  0  0  0  0  0  0  0
    1.3350   -2.3690   -1.1020 O   0  0  0  0  0  0  0  0  0  0  0  0
    0.1590   -0.5440   -0.0930 C   0  0  0  0  0  0  0  0  0  0  0  0
   -1.1120   -1.3450   -0.3620 C   0  0  1  0  0  0  0  0  0  0  0  0
   -1.0130   -2.5620    0.4940 C   0  0  0  0  0  0  0  0  0  0  0  0
   -0.8010   -2.4680    1.9270 C   0  0  0  0  0  0  0  0  0  0  0  0
   -0.3230   -1.4740    2.7580 N   0  0  0  0  0  0  0  0  0  0  0  0
   -1.1310   -3.5740    2.5650 O   0  0  0  0  0  0  0  0  0  0  0  0
   -2.3170   -0.5730   -0.5090 C   0  0  0  0  0  0  0  0  0  0  0  0
   -2.4750    0.0210   -1.7960 C   0  0  0  0  0  0  0  0  0  0  0  0
   -1.4460   -0.0420   -2.8600 C   0  0  0  0  0  0  0  0  0  0  0  0
   -3.6270    0.7250   -2.0490 C   0  0  0  0  0  0  0  0  0  0  0  0
   -4.6360    0.8910   -1.1310 C   0  0  0  0  0  0  0  0  0  0  0  0
   -4.4750    0.3170    0.1010 C   0  0  0  0  0  0  0  0  0  0  0  0
   -3.3140   -0.4180    0.4080 C   0  0  0  0  0  0  0  0  0  0  0  0
   -3.3500   -1.1950    1.9870 Cl  0  0  0  0  0  0  0  0  0  0  0  0
   -5.6500    0.6230    0.9630 C   0  0  0  0  0  0  0  0  0  0  0  0
   -6.6960    1.0640   -0.0180 C   0  0  0  0  0  0  0  0  0  0  0  0
   -5.9380    1.6130   -1.2130 C   0  0  0  0  0  0  0  0  0  0  0  0
    3.8650   -1.2850   -0.6770 C   0  0  0  0  0  0  0  0  0  0  0  0
    5.0920   -0.7110   -0.4340 C   0  0  0  0  0  0  0  0  0  0  0  0
  1  2  1  0
  2  3  1  0
  3  4  2  0
  3  5  1  0
  5  6  2  0
  5 29  1  0
  6  7  1  0
  7  8  2  0
  8  9  1  0
  8 28  1  0
  9 10  2  0
  9 11  1  0
 12 11  1  1
 12 13  1  0
 12 17  1  0
 13 14  1  0
 14 15  1  0
 14 16  2  0
 17 18  2  0
 17 23  1  0
 18 19  1  0
 18 20  1  0
 20 21  2  0
 21 22  1  0
 21 27  1  0
 22 23  2  0
 22 25  1  0
 23 24  1  0
 25 26  1  0
 26 27  1  0
 28 29  2  0
M  END
