
     RDKit          3D

 29 31  0  0  0  0  0  0  0  0999 V2000
    0.6570    5.2460    0.3970 C   0  0  0  0  0  0  0  0  0  0  0  0
   -0.3950    4.6330    1.2620 C   0  0  0  0  0  0  0  0  0  0  0  0
   -0.8840    3.4060    0.7850 O   0  0  0  0  0  0  0  0  0  0  0  0
   -0.0480    2.2760    0.5940 C   0  0  0  0  0  0  0  0  0  0  0  0
    1.1380    2.4810    0.8880 O   0  0  0  0  0  0  0  0  0  0  0  0
   -0.6240    1.0330    0.0950 C   0  0  0  0  0  0  0  0  0  0  0  0
    0.0790   -0.0390   -0.1020 C   0  0  0  0  0  0  0  0  0  0  0  0
    1.5040   -0.1770    0.1260 C   0  0  0  0  0  0  0  0  0  0  0  0
    2.1470   -1.3270   -0.1060 C   0  0  0  0  0  0  0  0  0  0  0  0
    1.5780   -2.5460   -0.5880 N   0  0  0  0  0  0  0  0  0  0  0  0
    2.6420   -3.5030   -0.6830 C   0  0  0  0  0  0  0  0  0  0  0  0
    3.8730   -2.8230   -0.2410 C   0  0  0  0  0  0  0  0  0  0  0  0
    5.1750   -3.2650   -0.1310 C   0  0  0  0  0  0  0  0  0  0  0  0
    6.2040   -2.4460    0.3160 C   0  0  0  0  0  0  0  0  0  0  0  0
    5.9060   -1.1410    0.6610 C   0  0  0  0  0  0  0  0  0  0  0  0
    4.6190   -0.7140    0.5500 C   0  0  0  0  0  0  0  0  0  0  0  0
    3.5760   -1.5230    0.1040 C   0  0  0  0  0  0  0  0  0  0  0  0
   -2.0660    1.0110   -0.2530 C   0  0  0  0  0  0  0  0  0  0  0  0
   -2.7440    2.0640    0.0230 O   0  0  0  0  0  0  0  0  0  0  0  0
   -2.7320   -0.1000   -0.8690 C   0  0  0  0  0  0  0  0  0  0  0  0
   -2.2070   -0.7590   -1.9860 C   0  0  0  0  0  0  0  0  0  0  0  0
   -2.8850   -1.8070   -2.5580 C   0  0  0  0  0  0  0  0  0  0  0  0
   -4.0920   -2.2370   -2.0540 C   0  0  0  0  0  0  0  0  0  0  0  0
   -4.9250   -3.5740   -2.8080 Cl  0  0  0  0  0  0  0  0  0  0  0  0
   -4.6340   -1.6110   -0.9610 C   0  0  0  0  0  0  0  0  0  0  0  0
   -3.9390   -0.5430   -0.3830 C   0  0  0  0  0  0  0  0  0  0  0  0
   -4.5800    0.1430    0.7590 C   0  0  0  0  0  0  0  0  0  0  0  0
   -5.3740    1.3180    0.3940 C   0  0  0  0  0  0  0  0  0  0  0  0
   -5.5850    1.7000   -0.7420 O   0  0  0  0  0  0  0  0  0  0  0  0
  1  2  1  0
  2  3  1  0
  3  4  1  0
  4  5  2  0
  4  6  1  0
  6  7  2  3
  6 18  1  0
  7  8  1  0
  8  9  2  3
  9 10  1  0
  9 17  1  0
 10 11  1  0
 11 12  1  0
 12 13  2  0
 12 17  1  0
 13 14  1  0
 14 15  2  0
 15 16  1  0
 16 17  2  0
 18 19  2  0
 18 20  1  0
 20 21  2  0
 20 26  1  0
 21 22  1  0
 22 23  2  0
 23 24  1  0
 23 25  1  0
 25 26  2  0
 26 27  1  0
 27 28  1  0
 28 29  2  0
M  END
