
     RDKit          3D

 31 35  0  0  0  0  0  0  0  0999 V2000
   -0.3090   -2.4500   -2.3670 C   0  0  0  0  0  0  0  0  0  0  0  0
   -0.5350   -1.6540   -1.2350 O   0  0  0  0  0  0  0  0  0  0  0  0
    0.4980   -1.0170   -0.5870 C   0  0  0  0  0  0  0  0  0  0  0  0
    1.7660   -1.1810   -1.0770 N   0  0  0  0  0  0  0  0  0  0  0  0
    2.8410   -0.5990   -0.5100 C   0  0  0  0  0  0  0  0  0  0  0  0
    4.1730   -0.8080   -1.0710 C   0  0  0  0  0  0  0  0  0  0  0  0
    4.2660   -1.5440   -2.0890 O   0  0  0  0  0  0  0  0  0  0  0  0
    5.3780   -0.2010   -0.4980 C   0  0  1  0  0  0  0  0  0  0  0  0
    5.3360    1.1780    0.0800 C   0  0  0  0  0  0  0  0  0  0  0  0
    5.5120   -0.0140    0.9580 C   0  0  2  0  0  0  0  0  0  0  0  0
    6.8640   -0.1840    1.5780 C   0  0  0  0  0  0  0  0  0  0  0  0
    7.0470   -0.6540    2.7100 O   0  0  0  0  0  0  0  0  0  0  0  0
    7.9820    0.2070    0.8470 O   0  0  0  0  0  0  0  0  0  0  0  0
    2.6560    0.1660    0.5710 N   0  0  0  0  0  0  0  0  0  0  0  0
    1.4340    0.3520    1.0800 C   0  0  0  0  0  0  0  0  0  0  0  0
    0.3330   -0.2300    0.5190 C   0  0  0  0  0  0  0  0  0  0  0  0
   -0.9600   -0.0220    1.0570 N   0  0  0  0  0  0  0  0  0  0  0  0
   -1.0910    0.7040    2.2980 C   0  0  0  0  0  0  0  0  0  0  0  0
   -2.5000    0.7740    2.7370 C   0  0  2  0  0  0  0  0  0  0  0  0
   -3.4650    1.4980    1.8280 C   0  0  0  0  0  0  0  0  0  0  0  0
   -3.2050    1.9520    3.2330 C   0  0  0  0  0  0  0  0  0  0  0  0
   -2.1330   -0.5010    0.3990 C   0  0  0  0  0  0  0  0  0  0  0  0
   -2.8220   -1.6070    0.8900 C   0  0  0  0  0  0  0  0  0  0  0  0
   -3.9590   -2.0590    0.2660 C   0  0  0  0  0  0  0  0  0  0  0  0
   -4.4470   -1.4280   -0.8660 C   0  0  0  0  0  0  0  0  0  0  0  0
   -3.7830   -0.3250   -1.3800 C   0  0  0  0  0  0  0  0  0  0  0  0
   -4.2860    0.2840   -2.5170 C   0  0  0  0  0  0  0  0  0  0  0  0
   -3.6360    1.3770   -3.0480 C   0  0  0  0  0  0  0  0  0  0  0  0
   -2.4970    1.8120   -2.4050 C   0  0  0  0  0  0  0  0  0  0  0  0
   -2.0040    1.2010   -1.2750 C   0  0  0  0  0  0  0  0  0  0  0  0
   -2.6470    0.1000   -0.7270 C   0  0  0  0  0  0  0  0  0  0  0  0
  1  2  1  0
  2  3  1  0
  3  4  2  0
  3 16  1  0
  4  5  1  0
  5  6  1  0
  5 14  2  0
  6  7  2  0
  8  6  1  1
  8  9  1  0
  8 10  1  0
  9 10  1  0
 10 11  1  6
 11 12  2  0
 11 13  1  0
 14 15  1  0
 15 16  2  0
 16 17  1  0
 17 18  1  0
 17 22  1  0
 19 18  1  6
 19 20  1  0
 19 21  1  0
 20 21  1  0
 22 23  2  0
 22 31  1  0
 23 24  1  0
 24 25  2  0
 25 26  1  0
 26 27  2  0
 26 31  1  0
 27 28  1  0
 28 29  2  0
 29 30  1  0
 30 31  2  0
M  END
