
     RDKit          3D

 31 33  0  0  0  0  0  0  0  0999 V2000
   -3.6090    1.2980   -3.3580 C   0  0  0  0  0  0  0  0  0  0  0  0
   -4.2650    2.0890   -2.3760 N   0  0  0  0  0  0  0  0  0  0  0  0
   -4.6220    1.8050   -1.1920 C   0  0  0  0  0  0  0  0  0  0  0  0
   -5.2880    2.7960   -0.3760 N   0  0  0  0  0  0  0  0  0  0  0  0
   -5.5740    2.1780    0.8660 C   0  0  0  0  0  0  0  0  0  0  0  0
   -5.0700    0.7790    0.7960 C   0  0  0  0  0  0  0  0  0  0  0  0
   -5.2080   -0.2190    1.9190 C   0  0  1  0  0  0  0  0  0  0  0  0
   -4.8930   -1.4860    1.5530 F   0  0  0  0  0  0  0  0  0  0  0  0
   -4.3520    0.1810    2.9260 F   0  0  0  0  0  0  0  0  0  0  0  0
   -6.5060   -0.1320    2.4160 F   0  0  0  0  0  0  0  0  0  0  0  0
   -4.5300    0.5970   -0.3860 C   0  0  0  0  0  0  0  0  0  0  0  0
   -3.9000   -0.6040   -0.8440 N   0  0  0  0  0  0  0  0  0  0  0  0
   -2.4660   -0.7130   -0.8220 C   0  0  0  0  0  0  0  0  0  0  0  0
   -1.9300   -0.7860    0.5910 C   0  0  0  0  0  0  0  0  0  0  0  0
   -0.4670   -0.8660    0.5750 N   0  0  0  0  0  0  0  0  0  0  0  0
    0.4240    0.2390    0.6000 C   0  0  0  0  0  0  0  0  0  0  0  0
    0.1770    1.4180    1.0090 O   0  0  0  0  0  0  0  0  0  0  0  0
    1.6970   -0.1770    0.0780 N   0  0  0  0  0  0  0  0  0  0  0  0
    2.8950    0.6430   -0.0740 C   0  0  0  0  0  0  0  0  0  0  0  0
    3.7270    0.5570    1.1890 C   0  0  0  0  0  0  0  0  0  0  0  0
    4.9820    1.3830    1.0930 C   0  0  0  0  0  0  0  0  0  0  0  0
    5.8210    0.9400   -0.0090 N   0  0  0  0  0  0  0  0  0  0  0  0
    5.7420    1.4150   -1.2620 C   0  0  0  0  0  0  0  0  0  0  0  0
    6.6910    0.7550   -2.0190 C   0  0  0  0  0  0  0  0  0  0  0  0
    7.3650   -0.1440   -1.2030 C   0  0  0  0  0  0  0  0  0  0  0  0
    6.7710    0.0190    0.0530 C   0  0  0  0  0  0  0  0  0  0  0  0
    1.5320   -1.5490   -0.2530 C   0  0  0  0  0  0  0  0  0  0  0  0
    2.2550   -2.2030   -1.0630 O   0  0  0  0  0  0  0  0  0  0  0  0
    0.3660   -2.0260    0.5310 C   0  0  1  0  0  0  0  0  0  0  0  0
    0.8870   -2.4220    1.8960 C   0  0  0  0  0  0  0  0  0  0  0  0
   -0.2960   -3.2230   -0.0890 C   0  0  0  0  0  0  0  0  0  0  0  0
  1  2  1  0
  2  3  2  3
  3  4  1  0
  3 11  1  0
  4  5  1  0
  5  6  1  0
  6  7  1  0
  6 11  2  0
  7  8  1  6
  7  9  1  0
  7 10  1  0
 11 12  1  0
 12 13  1  0
 13 14  1  0
 14 15  1  0
 15 16  1  0
 15 29  1  0
 16 17  2  0
 16 18  1  0
 18 19  1  0
 18 27  1  0
 19 20  1  0
 20 21  1  0
 21 22  1  0
 22 23  1  0
 22 26  1  0
 23 24  2  0
 24 25  1  0
 25 26  2  0
 27 28  2  0
 27 29  1  0
 29 30  1  1
 29 31  1  0
M  END
