
     RDKit          3D

 35 37  0  0  0  0  0  0  0  0999 V2000
    6.4020    3.7010   -0.2930 C   0  0  0  0  0  0  0  0  0  0  0  0
    6.6840    2.3120   -0.8270 C   0  0  0  0  0  0  0  0  0  0  0  0
    5.8330    1.2700   -0.1290 C   0  0  0  0  0  0  0  0  0  0  0  0
    4.3520    1.6460   -0.3850 C   0  0  0  0  0  0  0  0  0  0  0  0
    3.5250    0.6890    0.2510 N   0  0  0  0  0  0  0  0  0  0  0  0
    2.1790    0.6010    0.5690 C   0  0  0  0  0  0  0  0  0  0  0  0
    1.9230   -0.3130    1.7140 N   0  0  0  0  0  0  0  0  0  0  0  0
    1.8730   -1.7000    1.5490 C   0  0  0  0  0  0  0  0  0  0  0  0
    2.0770   -2.3350    0.3450 C   0  0  0  0  0  0  0  0  0  0  0  0
    2.0190   -3.7260    0.2260 C   0  0  0  0  0  0  0  0  0  0  0  0
    1.7520   -4.5130    1.3230 C   0  0  0  0  0  0  0  0  0  0  0  0
    1.6840   -5.9010    1.2550 O   0  0  0  0  0  0  0  0  0  0  0  0
    1.5480   -3.8920    2.5280 C   0  0  0  0  0  0  0  0  0  0  0  0
    1.6040   -2.5260    2.6470 C   0  0  0  0  0  0  0  0  0  0  0  0
    1.0830    1.1500    0.1280 C   0  0  0  0  0  0  0  0  0  0  0  0
    1.0370    2.1170   -0.9490 C   0  0  0  0  0  0  0  0  0  0  0  0
    2.0590    2.5070   -1.5440 O   0  0  0  0  0  0  0  0  0  0  0  0
   -0.2450    2.6370   -1.3340 N   0  0  0  0  0  0  0  0  0  0  0  0
   -1.4810    2.2610   -0.7230 C   0  0  0  0  0  0  0  0  0  0  0  0
   -2.6640    2.9440   -1.2230 C   0  0  0  0  0  0  0  0  0  0  0  0
   -2.5820    3.7980   -2.1660 O   0  0  0  0  0  0  0  0  0  0  0  0
   -3.9200    2.7340   -0.7320 O   0  0  0  0  0  0  0  0  0  0  0  0
   -5.0960    3.3820   -1.1880 C   0  0  0  0  0  0  0  0  0  0  0  0
   -1.5050    1.3810    0.2580 C   0  0  0  0  0  0  0  0  0  0  0  0
   -2.6800    1.0120    0.8410 O   0  0  0  0  0  0  0  0  0  0  0  0
   -3.5750   -0.0050    0.4640 C   0  0  2  0  0  0  0  0  0  0  0  0
   -4.7020    0.0650    1.4760 C   0  0  0  0  0  0  0  0  0  0  0  0
   -5.8480   -0.8390    1.1420 C   0  0  0  0  0  0  0  0  0  0  0  0
   -5.3860   -2.3080    0.2530 S   0  0  0  0  0  0  0  0  0  0  0  0
   -3.6780   -2.3970   -0.2430 C   0  0  1  0  0  0  0  0  0  0  0  0
   -3.6040   -2.2650   -1.7390 C   0  0  0  0  0  0  0  0  0  0  0  0
   -2.2190   -2.3250   -2.3000 C   0  0  0  0  0  0  0  0  0  0  0  0
   -2.8840   -1.3530    0.4860 C   0  0  0  0  0  0  0  0  0  0  0  0
   -0.2350    0.8160    0.7000 C   0  0  0  0  0  0  0  0  0  0  0  0
   -0.2700   -0.0080    1.6350 O   0  0  0  0  0  0  0  0  0  0  0  0
  1  2  1  0
  2  3  1  0
  3  4  1  0
  4  5  1  0
  5  6  1  0
  6  7  1  0
  6 15  2  3
  7  8  1  0
  8  9  2  0
  8 14  1  0
  9 10  1  0
 10 11  2  0
 11 12  1  0
 11 13  1  0
 13 14  2  0
 15 16  1  0
 15 34  1  0
 16 17  2  0
 16 18  1  0
 18 19  1  0
 19 20  1  0
 19 24  2  0
 20 21  2  0
 20 22  1  0
 22 23  1  0
 24 25  1  0
 24 34  1  0
 26 25  1  1
 26 27  1  0
 26 33  1  0
 27 28  1  0
 28 29  1  0
 29 30  1  0
 30 31  1  6
 30 33  1  0
 31 32  1  0
 34 35  2  0
M  END
