
     RDKit          3D

 35 37  0  0  0  0  0  0  0  0999 V2000
   -9.5760    2.4240    0.0450 C   0  0  0  0  0  0  0  0  0  0  0  0
   -8.3400    1.9320   -0.4300 O   0  0  0  0  0  0  0  0  0  0  0  0
   -7.2340    1.9010    0.4140 C   0  0  0  0  0  0  0  0  0  0  0  0
   -7.3560    2.3520    1.7050 C   0  0  0  0  0  0  0  0  0  0  0  0
   -6.2310    2.2960    2.4870 C   0  0  0  0  0  0  0  0  0  0  0  0
   -5.0350    1.8010    1.9690 C   0  0  0  0  0  0  0  0  0  0  0  0
   -3.8410    1.6600    2.5440 N   0  0  0  0  0  0  0  0  0  0  0  0
   -2.9550    1.1410    1.6810 C   0  0  0  0  0  0  0  0  0  0  0  0
   -3.5850    0.9300    0.4900 C   0  0  0  0  0  0  0  0  0  0  0  0
   -3.1110    0.3680   -0.7450 C   0  0  0  0  0  0  0  0  0  0  0  0
   -2.0840   -0.2770   -1.1210 C   0  0  0  0  0  0  0  0  0  0  0  0
   -0.8840   -0.7760   -0.5200 C   0  0  0  0  0  0  0  0  0  0  0  0
   -0.5770   -0.6610    0.6880 O   0  0  0  0  0  0  0  0  0  0  0  0
    0.1320   -1.4900   -1.2710 N   0  0  0  0  0  0  0  0  0  0  0  0
    1.3410   -1.9910   -0.6530 C   0  0  1  0  0  0  0  0  0  0  0  0
    1.3300   -3.4900   -0.7760 C   0  0  0  0  0  0  0  0  0  0  0  0
    1.7680   -4.0950    0.5140 C   0  0  1  0  0  0  0  0  0  0  0  0
    1.8730   -5.6130    0.3930 C   0  0  0  0  0  0  0  0  0  0  0  0
    3.0250   -3.4820    1.0230 C   0  0  0  0  0  0  0  0  0  0  0  0
    3.9800   -3.0280   -0.0200 C   0  0  0  0  0  0  0  0  0  0  0  0
    3.8100   -1.5890   -0.4290 C   0  0  2  0  0  0  0  0  0  0  0  0
    3.9520   -0.6660    0.6480 N   0  0  0  0  0  0  0  0  0  0  0  0
    5.3010    0.3720    0.5440 S   0  0  2  0  0  0  0  0  0  0  0  0
    6.6040   -0.3670    0.5170 O   0  0  0  0  0  0  0  0  0  0  0  0
    5.3090    1.2220    1.7710 O   0  0  0  0  0  0  0  0  0  0  0  0
    5.2490    1.4100   -0.8860 C   0  0  0  0  0  0  0  0  0  0  0  0
    6.4100    2.3350   -1.0240 C   0  0  0  0  0  0  0  0  0  0  0  0
    6.5950    3.3490    0.0540 C   0  0  0  0  0  0  0  0  0  0  0  0
    5.4930    4.3410    0.2120 C   0  0  0  0  0  0  0  0  0  0  0  0
    4.2770    3.7690    0.5100 O   0  0  0  0  0  0  0  0  0  0  0  0
    2.5800   -1.3760   -1.2700 C   0  0  0  0  0  0  0  0  0  0  0  0
   -4.9240    1.3570    0.6880 C   0  0  0  0  0  0  0  0  0  0  0  0
   -6.0450    1.4070   -0.1040 C   0  0  0  0  0  0  0  0  0  0  0  0
   -6.0220    0.9680   -1.4270 O   0  0  0  0  0  0  0  0  0  0  0  0
   -6.3910   -0.3910   -1.7200 C   0  0  0  0  0  0  0  0  0  0  0  0
  1  2  1  0
  2  3  1  0
  3  4  2  0
  3 33  1  0
  4  5  1  0
  5  6  2  0
  6  7  1  0
  6 32  1  0
  7  8  1  0
  8  9  2  0
  9 10  1  0
  9 32  1  0
 10 11  2  3
 11 12  1  0
 12 13  2  0
 12 14  1  0
 15 14  1  6
 15 16  1  0
 15 31  1  0
 16 17  1  0
 17 18  1  6
 17 19  1  0
 19 20  1  0
 20 21  1  0
 21 22  1  1
 21 31  1  0
 22 23  1  0
 23 24  2  0
 23 25  2  0
 23 26  1  6
 26 27  1  0
 27 28  1  0
 28 29  1  0
 29 30  1  0
 32 33  2  0
 33 34  1  0
 34 35  1  0
M  END
