
     RDKit          3D

 35 37  0  0  0  0  0  0  0  0999 V2000
   -0.9560    3.2570   -0.0840 C   0  0  0  0  0  0  0  0  0  0  0  0
   -1.4850    1.9190   -0.5550 C   0  0  0  0  0  0  0  0  0  0  0  0
   -2.4870    2.1820   -1.6480 C   0  0  2  0  0  0  0  0  0  0  0  0
   -3.5370    2.9620   -1.1770 O   0  0  0  0  0  0  0  0  0  0  0  0
   -2.9510    0.8860   -2.2400 C   0  0  1  0  0  0  0  0  0  0  0  0
   -1.9260    0.1020   -2.7090 O   0  0  0  0  0  0  0  0  0  0  0  0
   -3.7940    0.1920   -1.2180 C   0  0  0  0  0  0  0  0  0  0  0  0
   -4.7440    0.8410   -0.7540 O   0  0  0  0  0  0  0  0  0  0  0  0
   -3.5530   -1.1220   -0.7840 N   0  0  0  0  0  0  0  0  0  0  0  0
   -4.2800   -1.8700    0.1640 C   0  0  0  0  0  0  0  0  0  0  0  0
   -5.4190   -1.4220    0.7860 C   0  0  0  0  0  0  0  0  0  0  0  0
   -6.1420   -2.2230    1.6830 C   0  0  0  0  0  0  0  0  0  0  0  0
   -5.7030   -3.4940    1.9520 C   0  0  0  0  0  0  0  0  0  0  0  0
   -4.5670   -3.9770    1.3500 C   0  0  0  0  0  0  0  0  0  0  0  0
   -3.8620   -3.1500    0.4560 C   0  0  0  0  0  0  0  0  0  0  0  0
   -2.7260   -3.6490   -0.1260 O   0  0  0  0  0  0  0  0  0  0  0  0
   -1.4910   -3.6480    0.4770 C   0  0  1  0  0  0  0  0  0  0  0  0
   -1.5240   -4.4960    1.7850 C   0  0  0  0  0  0  0  0  0  0  0  0
   -0.4090   -4.2310   -0.4370 C   0  0  0  0  0  0  0  0  0  0  0  0
    0.8460   -3.7600    0.2300 C   0  0  0  0  0  0  0  0  0  0  0  0
    0.5370   -2.5150    0.8580 N   0  0  0  0  0  0  0  0  0  0  0  0
    1.5470   -1.5840    1.3450 C   0  0  0  0  0  0  0  0  0  0  0  0
    1.9490   -0.6140    0.2460 C   0  0  0  0  0  0  0  0  0  0  0  0
    3.0040    0.3180    0.8400 C   0  0  0  0  0  0  0  0  0  0  0  0
    3.4630    1.3010   -0.1660 C   0  0  0  0  0  0  0  0  0  0  0  0
    2.9570    1.2470   -1.3190 O   0  0  0  0  0  0  0  0  0  0  0  0
    4.4660    2.2760    0.2100 C   0  0  0  0  0  0  0  0  0  0  0  0
    5.0030    2.2680    1.5880 C   0  0  0  0  0  0  0  0  0  0  0  0
    4.8910    3.1590   -0.6770 C   0  0  0  0  0  0  0  0  0  0  0  0
    5.8540    4.1870   -0.5180 N   0  0  0  0  0  0  0  0  0  0  0  0
    5.7350    5.2480   -1.4590 C   0  0  0  0  0  0  0  0  0  0  0  0
    5.5800    4.6220   -2.8550 C   0  0  0  0  0  0  0  0  0  0  0  0
    4.3640    3.3160   -2.3950 S   0  0  0  0  0  0  0  0  0  0  0  0
   -0.8970   -2.3800    0.9020 C   0  0  0  0  0  0  0  0  0  0  0  0
   -1.3910   -1.2770    1.2730 O   0  0  0  0  0  0  0  0  0  0  0  0
  1  2  1  0
  2  3  1  0
  3  4  1  1
  3  5  1  0
  5  6  1  1
  5  7  1  0
  7  8  2  0
  7  9  1  0
  9 10  1  0
 10 11  2  0
 10 15  1  0
 11 12  1  0
 12 13  2  0
 13 14  1  0
 14 15  2  0
 15 16  1  0
 16 17  1  0
 17 18  1  1
 17 19  1  0
 17 34  1  0
 19 20  1  0
 20 21  1  0
 21 22  1  0
 21 34  1  0
 22 23  1  0
 23 24  1  0
 24 25  1  0
 25 26  2  0
 25 27  1  0
 27 28  1  0
 27 29  2  3
 29 30  1  0
 29 33  1  0
 30 31  1  0
 31 32  1  0
 32 33  1  0
 34 35  2  0
M  END
