
     RDKit          3D

 35 37  0  0  0  0  0  0  0  0999 V2000
    8.6200   -1.5010    1.6660 C   0  0  0  0  0  0  0  0  0  0  0  0
    7.5100   -0.9020    1.2740 C   0  0  0  0  0  0  0  0  0  0  0  0
    6.1820   -1.0180    1.8790 C   0  0  0  0  0  0  0  0  0  0  0  0
    5.3730   -0.0980    1.3420 C   0  0  0  0  0  0  0  0  0  0  0  0
    3.9490    0.0890    1.7070 C   0  0  0  0  0  0  0  0  0  0  0  0
    3.1240   -0.1000    0.5690 O   0  0  0  0  0  0  0  0  0  0  0  0
    1.7520    0.0150    0.6220 C   0  0  0  0  0  0  0  0  0  0  0  0
    1.2070    0.2950    1.7080 O   0  0  0  0  0  0  0  0  0  0  0  0
    1.0010   -0.2060   -0.6350 C   0  0  0  0  0  0  0  0  0  0  0  0
   -0.3060   -0.1120   -0.6870 C   0  0  0  0  0  0  0  0  0  0  0  0
   -0.9680    0.2170    0.5360 N   0  0  0  0  0  0  0  0  0  0  0  0
   -1.0090    1.6120    0.8920 C   0  0  0  0  0  0  0  0  0  0  0  0
   -0.5180    2.5300    0.0850 C   0  0  0  0  0  0  0  0  0  0  0  0
   -0.5670    3.9150    0.4580 C   0  0  0  0  0  0  0  0  0  0  0  0
   -0.1680    5.0460   -0.1370 C   0  0  0  0  0  0  0  0  0  0  0  0
   -0.3410    6.2290    0.4600 C   0  0  0  0  0  0  0  0  0  0  0  0
   -0.9420    6.2530    1.7080 C   0  0  0  0  0  0  0  0  0  0  0  0
   -1.2640    4.4930    2.0140 S   0  0  0  0  0  0  0  0  0  0  0  0
   -1.1240   -0.3140   -1.8840 C   0  0  2  0  0  0  0  0  0  0  0  0
   -2.4160   -0.9800   -1.5220 N   0  0  0  0  0  0  0  0  0  0  0  0
   -3.5970   -0.2310   -1.8460 C   0  0  0  0  0  0  0  0  0  0  0  0
   -3.9230    0.9040   -0.9270 C   0  0  0  0  0  0  0  0  0  0  0  0
   -4.1760    0.7270    0.3690 O   0  0  0  0  0  0  0  0  0  0  0  0
   -5.3510    0.1170    0.6920 C   0  0  0  0  0  0  0  0  0  0  0  0
   -2.3990   -2.1950   -0.8570 C   0  0  0  0  0  0  0  0  0  0  0  0
   -1.2050   -2.5920   -0.4860 O   0  0  0  0  0  0  0  0  0  0  0  0
   -3.4410   -3.1380   -0.4870 C   0  0  2  0  0  0  0  0  0  0  0  0
   -4.7050   -2.9140   -0.9330 O   0  0  0  0  0  0  0  0  0  0  0  0
   -3.4450   -3.5470    0.9700 C   0  0  0  0  0  0  0  0  0  0  0  0
   -3.9990   -2.6000    1.8700 N   0  0  0  0  0  0  0  0  0  0  0  0
   -0.4160   -1.1370   -2.9020 C   0  0  0  0  0  0  0  0  0  0  0  0
    0.9560   -1.5950   -2.5870 C   0  0  0  0  0  0  0  0  0  0  0  0
    1.7730   -0.5430   -1.8590 C   0  0  0  0  0  0  0  0  0  0  0  0
    6.0860    0.6240    0.4130 O   0  0  0  0  0  0  0  0  0  0  0  0
    7.3380    0.0290    0.1310 C   0  0  0  0  0  0  0  0  0  0  0  0
  1  2  2  0
  2  3  1  0
  2 35  1  0
  3  4  2  0
  4  5  1  0
  4 34  1  0
  5  6  1  0
  6  7  1  0
  7  8  2  0
  7  9  1  0
  9 10  2  0
  9 33  1  0
 10 11  1  0
 10 19  1  0
 11 12  1  0
 12 13  2  3
 13 14  1  0
 14 15  2  0
 14 18  1  0
 15 16  1  0
 16 17  2  0
 17 18  1  0
 19 20  1  1
 19 31  1  0
 20 21  1  0
 20 25  1  0
 21 22  1  0
 22 23  1  0
 23 24  1  0
 25 26  2  0
 25 27  1  0
 27 28  1  1
 27 29  1  0
 29 30  1  0
 31 32  1  0
 32 33  1  0
 34 35  1  0
M  END
