
     RDKit          3D

 35 37  0  0  0  0  0  0  0  0999 V2000
    0.4420   -4.5160   -3.0780 C   0  0  0  0  0  0  0  0  0  0  0  0
    0.4810   -3.7640   -4.3830 C   0  0  0  0  0  0  0  0  0  0  0  0
    0.2030   -2.3850   -4.1080 O   0  0  0  0  0  0  0  0  0  0  0  0
   -0.9700   -1.9790   -3.5230 C   0  0  0  0  0  0  0  0  0  0  0  0
   -1.7850   -2.9170   -3.2450 O   0  0  0  0  0  0  0  0  0  0  0  0
   -1.3270   -0.5810   -3.2220 C   0  0  0  0  0  0  0  0  0  0  0  0
   -2.5200   -0.2750   -2.7040 C   0  0  0  0  0  0  0  0  0  0  0  0
   -2.6270    1.1550   -2.5150 C   0  0  0  0  0  0  0  0  0  0  0  0
   -4.0630    2.0240   -1.8290 S   0  0  0  0  0  0  0  0  0  0  0  0
   -5.2500    0.9270   -1.0850 C   0  0  0  0  0  0  0  0  0  0  0  0
   -4.8410    0.3130    0.2250 C   0  0  1  0  0  0  0  0  0  0  0  0
   -3.6920   -0.4030    0.0810 O   0  0  0  0  0  0  0  0  0  0  0  0
   -4.7920    1.3850    1.3100 C   0  0  2  0  0  0  0  0  0  0  0  0
   -3.9950    2.5740    0.8920 C   0  0  0  0  0  0  0  0  0  0  0  0
   -3.5590    3.3230    2.1700 C   0  0  0  0  0  0  0  0  0  0  0  0
   -2.6100    2.3190    2.8300 C   0  0  0  0  0  0  0  0  0  0  0  0
   -3.4360    1.1480    3.2250 C   0  0  2  0  0  0  0  0  0  0  0  0
   -2.4980   -0.0460    3.3550 C   0  0  0  0  0  0  0  0  0  0  0  0
   -4.5630    0.8850    2.5440 O   0  0  0  0  0  0  0  0  0  0  0  0
   -1.5460    1.6900   -2.8960 N   0  0  0  0  0  0  0  0  0  0  0  0
   -0.5850    0.6620   -3.3700 C   0  0  1  0  0  0  0  0  0  0  0  0
    0.6420    0.8400   -2.5070 C   0  0  0  0  0  0  0  0  0  0  0  0
    1.6710   -0.1910   -2.6870 C   0  0  0  0  0  0  0  0  0  0  0  0
    2.9080    0.1090   -1.8750 C   0  0  0  0  0  0  0  0  0  0  0  0
    2.8690    1.1190   -1.1410 O   0  0  0  0  0  0  0  0  0  0  0  0
    4.0700   -0.6850   -1.9160 N   0  0  0  0  0  0  0  0  0  0  0  0
    5.1950   -0.3080   -1.0990 C   0  0  0  0  0  0  0  0  0  0  0  0
    4.8460   -0.3030    0.3510 C   0  0  0  0  0  0  0  0  0  0  0  0
    3.6770   -0.6070    0.6810 O   0  0  0  0  0  0  0  0  0  0  0  0
    5.7800    0.0300    1.3510 N   0  0  0  0  0  0  0  0  0  0  0  0
    5.5110    0.0520    2.7440 C   0  0  0  0  0  0  0  0  0  0  0  0
    4.3880   -0.2160    3.3750 C   0  0  0  0  0  0  0  0  0  0  0  0
    4.5450   -0.0710    4.8490 C   0  0  0  0  0  0  0  0  0  0  0  0
    5.9620    0.3300    4.9800 C   0  0  0  0  0  0  0  0  0  0  0  0
    6.4760    0.3900    3.7840 C   0  0  0  0  0  0  0  0  0  0  0  0
  1  2  1  0
  2  3  1  0
  3  4  1  0
  4  5  2  0
  4  6  1  0
  6  7  2  0
  6 21  1  0
  7  8  1  0
  8  9  1  0
  8 20  2  0
  9 10  1  0
 10 11  1  0
 11 12  1  6
 11 13  1  0
 13 14  1  6
 13 19  1  0
 14 15  1  0
 15 16  1  0
 16 17  1  0
 17 18  1  6
 17 19  1  0
 20 21  1  0
 21 22  1  1
 22 23  1  0
 23 24  1  0
 24 25  2  0
 24 26  1  0
 26 27  1  0
 27 28  1  0
 28 29  2  0
 28 30  1  0
 30 31  1  0
 31 32  2  0
 31 35  1  0
 32 33  1  0
 33 34  1  0
 34 35  2  0
M  END
