
     RDKit          3D

 33 33  0  0  0  0  0  0  0  0999 V2000
    4.9480   -2.4730   -1.9270 O   0  0  0  0  0  0  0  0  0  0  0  0
    5.4250   -1.4150   -2.3770 C   0  0  0  0  0  0  0  0  0  0  0  0
    6.3910   -1.4600   -3.3550 O   0  0  0  0  0  0  0  0  0  0  0  0
    4.9570   -0.1170   -1.8650 C   0  0  0  0  0  0  0  0  0  0  0  0
    3.9990   -0.3260   -0.9020 O   0  0  0  0  0  0  0  0  0  0  0  0
    3.5170    0.8710   -0.3780 C   0  0  0  0  0  0  0  0  0  0  0  0
    2.4660    0.6060    0.6770 C   0  0  1  0  0  0  0  0  0  0  0  0
    1.4490   -0.0840    0.0230 O   0  0  0  0  0  0  0  0  0  0  0  0
    0.2350    0.6470    0.0670 C   0  0  0  0  0  0  0  0  0  0  0  0
   -0.7640   -0.2120   -0.6730 C   0  0  2  0  0  0  0  0  0  0  0  0
   -0.2250   -0.3560   -1.9770 O   0  0  0  0  0  0  0  0  0  0  0  0
   -2.1110    0.4150   -0.8690 C   0  0  1  0  0  0  0  0  0  0  0  0
   -2.9100    0.5620    0.4110 C   0  0  1  0  0  0  0  0  0  0  0  0
   -2.2210    1.4720    1.2770 O   0  0  0  0  0  0  0  0  0  0  0  0
   -4.2080    1.2230    0.1700 C   0  0  0  0  0  0  0  0  0  0  0  0
   -5.1140    0.6290   -0.6350 O   0  0  0  0  0  0  0  0  0  0  0  0
   -2.9200   -0.7380    1.1160 C   0  0  0  0  0  0  0  0  0  0  0  0
   -3.4940   -1.9210    0.4420 C   0  0  2  0  0  0  0  0  0  0  0  0
   -4.8140   -1.8450    0.0770 O   0  0  0  0  0  0  0  0  0  0  0  0
   -3.4510   -3.0550    1.4980 C   0  0  0  0  0  0  0  0  0  0  0  0
   -4.2520   -2.7500    2.5710 O   0  0  0  0  0  0  0  0  0  0  0  0
   -1.8890    1.7470   -1.5470 C   0  0  0  0  0  0  0  0  0  0  0  0
   -2.9740    2.1510   -2.3170 O   0  0  0  0  0  0  0  0  0  0  0  0
   -3.2540    1.2600   -3.3220 C   0  0  0  0  0  0  0  0  0  0  0  0
   -2.8700   -0.1530   -2.9970 C   0  0  0  0  0  0  0  0  0  0  0  0
   -2.8420   -0.4600   -1.6670 O   0  0  0  0  0  0  0  0  0  0  0  0
    3.0670   -0.2400    1.7560 C   0  0  2  0  0  0  0  0  0  0  0  0
    3.6340   -1.4320    1.2780 O   0  0  0  0  0  0  0  0  0  0  0  0
    2.0230   -0.6960    2.7660 C   0  0  0  0  0  0  0  0  0  0  0  0
    1.1100   -1.4920    2.0880 O   0  0  0  0  0  0  0  0  0  0  0  0
    4.1510    0.5060    2.4960 C   0  0  2  0  0  0  0  0  0  0  0  0
    3.6610    1.7240    2.9960 O   0  0  0  0  0  0  0  0  0  0  0  0
    5.3090    0.6900    1.7820 O   0  0  0  0  0  0  0  0  0  0  0  0
  1  2  2  0
  2  3  1  0
  2  4  1  0
  4  5  1  0
  5  6  1  0
  7  6  1  6
  7  8  1  0
  7 27  1  0
  8  9  1  0
  9 10  1  0
 10 11  1  6
 10 12  1  0
 12 13  1  0
 12 22  1  6
 12 26  1  0
 13 14  1  1
 13 15  1  0
 13 17  1  0
 15 16  1  0
 17 18  1  0
 18 19  1  1
 18 20  1  0
 20 21  1  0
 22 23  1  0
 23 24  1  0
 24 25  1  0
 25 26  1  0
 27 28  1  6
 27 29  1  0
 27 31  1  0
 29 30  1  0
 31 32  1  6
 31 33  1  0
M  END
