
     RDKit          3D

 35 39  0  0  0  0  0  0  0  0999 V2000
   -7.6960    2.5690   -0.9120 C   0  0  0  0  0  0  0  0  0  0  0  0
   -7.6920    1.2740    0.3580 S   0  0  0  0  0  0  0  0  0  0  0  0
   -7.2690   -0.3090   -0.3480 C   0  0  0  0  0  0  0  0  0  0  0  0
   -8.2630   -0.9340   -1.0430 C   0  0  0  0  0  0  0  0  0  0  0  0
   -8.0960   -2.1760   -1.6040 C   0  0  0  0  0  0  0  0  0  0  0  0
   -6.8460   -2.7530   -1.4170 C   0  0  0  0  0  0  0  0  0  0  0  0
   -5.8280   -2.1140   -0.7090 C   0  0  0  0  0  0  0  0  0  0  0  0
   -5.9770   -0.9060   -0.1520 C   0  0  0  0  0  0  0  0  0  0  0  0
   -5.0540   -0.0880    0.5300 C   0  0  1  0  0  0  0  0  0  0  0  0
   -5.3450    0.0260    2.0910 C   0  0  0  0  0  0  0  0  0  0  0  0
   -4.2840    1.1150    2.3520 C   0  0  0  0  0  0  0  0  0  0  0  0
   -3.2290    0.9480    1.2130 C   0  0  0  0  0  0  0  0  0  0  0  0
   -3.6940   -0.4510    0.8290 N   0  0  0  0  0  0  0  0  0  0  0  0
   -2.8280   -1.5120    0.9920 C   0  0  0  0  0  0  0  0  0  0  0  0
   -3.3770   -2.7000    0.7850 O   0  0  0  0  0  0  0  0  0  0  0  0
   -1.4350   -1.6750    1.3580 C   0  0  0  0  0  0  0  0  0  0  0  0
   -0.5340   -0.5950    1.4810 N   0  0  0  0  0  0  0  0  0  0  0  0
    0.0220    0.1030    0.3630 C   0  0  0  0  0  0  0  0  0  0  0  0
   -0.2430   -0.2440   -0.8420 O   0  0  0  0  0  0  0  0  0  0  0  0
    0.8970    1.2100    0.5250 N   0  0  0  0  0  0  0  0  0  0  0  0
    1.5980    1.8970   -0.5460 C   0  0  0  0  0  0  0  0  0  0  0  0
    2.8990    1.2490   -0.8330 C   0  0  0  0  0  0  0  0  0  0  0  0
    3.2150    0.6840   -2.0300 C   0  0  0  0  0  0  0  0  0  0  0  0
    4.4650    0.0960   -2.2650 C   0  0  0  0  0  0  0  0  0  0  0  0
    5.4190    0.0680   -1.2900 C   0  0  0  0  0  0  0  0  0  0  0  0
    5.1120    0.6330   -0.0720 C   0  0  0  0  0  0  0  0  0  0  0  0
    3.8900    1.2140    0.1670 C   0  0  0  0  0  0  0  0  0  0  0  0
    6.1810    0.5660    0.9530 C   0  0  2  0  0  0  0  0  0  0  0  0
    7.4250    1.1400    0.2560 C   0  0  0  0  0  0  0  0  0  0  0  0
    7.8760    0.0450   -0.7330 C   0  0  2  0  0  0  0  0  0  0  0  0
    6.7250   -0.4790   -1.4360 N   0  0  0  0  0  0  0  0  0  0  0  0
    8.5730   -0.9790    0.1370 C   0  0  2  0  0  0  0  0  0  0  0  0
    8.8920   -2.1520   -0.4870 O   0  0  0  0  0  0  0  0  0  0  0  0
    7.7220   -1.1250    1.3810 C   0  0  0  0  0  0  0  0  0  0  0  0
    6.4020   -0.8140    1.1620 O   0  0  0  0  0  0  0  0  0  0  0  0
  1  2  1  0
  2  3  1  0
  3  4  2  0
  3  8  1  0
  4  5  1  0
  5  6  2  0
  6  7  1  0
  7  8  2  0
  9  8  1  1
  9 10  1  0
  9 13  1  0
 10 11  1  0
 11 12  1  0
 12 13  1  0
 13 14  1  0
 14 15  2  0
 14 16  1  0
 16 17  1  0
 17 18  1  0
 18 19  2  0
 18 20  1  0
 20 21  1  0
 21 22  1  0
 22 23  2  0
 22 27  1  0
 23 24  1  0
 24 25  2  0
 25 26  1  0
 25 31  1  0
 26 27  2  0
 26 28  1  0
 28 29  1  0
 28 35  1  6
 29 30  1  0
 30 31  1  1
 30 32  1  0
 32 33  1  6
 32 34  1  0
 34 35  1  0
M  END
