
     RDKit          3D

 35 37  0  0  0  0  0  0  0  0999 V2000
   -6.6090   -1.6590    3.4380 C   0  0  0  0  0  0  0  0  0  0  0  0
   -6.2590   -0.8980    2.1860 C   0  0  0  0  0  0  0  0  0  0  0  0
   -5.2000   -1.1970    1.3780 N   0  0  0  0  0  0  0  0  0  0  0  0
   -5.1540   -0.3400    0.3460 C   0  0  0  0  0  0  0  0  0  0  0  0
   -4.1560   -0.2900   -0.7940 C   0  0  0  0  0  0  0  0  0  0  0  0
   -3.2460    0.8580   -0.4710 C   0  0  0  0  0  0  0  0  0  0  0  0
   -2.1810    1.1830   -1.4210 C   0  0  0  0  0  0  0  0  0  0  0  0
   -1.1460    0.1650   -1.7500 C   0  0  1  0  0  0  0  0  0  0  0  0
   -1.6370   -1.0830   -2.3820 C   0  0  0  0  0  0  0  0  0  0  0  0
   -0.1200    0.8360   -2.6030 C   0  0  0  0  0  0  0  0  0  0  0  0
    1.0380    0.0540   -3.0590 C   0  0  1  0  0  0  0  0  0  0  0  0
    1.9170    1.0070   -3.8830 C   0  0  0  0  0  0  0  0  0  0  0  0
    1.8060   -0.7050   -2.0590 C   0  0  0  0  0  0  0  0  0  0  0  0
    2.4220    0.0590   -0.9780 C   0  0  0  0  0  0  0  0  0  0  0  0
    2.2470    1.3050   -0.9850 O   0  0  0  0  0  0  0  0  0  0  0  0
    3.1740   -0.4750    0.0430 O   0  0  0  0  0  0  0  0  0  0  0  0
    3.7150    0.3440    1.0280 C   0  0  1  0  0  0  0  0  0  0  0  0
    3.2100    0.0310    2.3880 C   0  0  0  0  0  0  0  0  0  0  0  0
    2.2330   -0.7480    2.4880 O   0  0  0  0  0  0  0  0  0  0  0  0
    3.8650    0.6330    3.4920 N   0  0  0  0  0  0  0  0  0  0  0  0
    5.2100    1.0860    3.3980 C   0  0  0  0  0  0  0  0  0  0  0  0
    5.8300    0.9240    2.2400 C   0  0  0  0  0  0  0  0  0  0  0  0
    5.1880    0.3100    1.0850 C   0  0  0  0  0  0  0  0  0  0  0  0
    5.9480   -0.2360    0.1640 C   0  0  0  0  0  0  0  0  0  0  0  0
    7.7290   -0.2610    0.2620 S   0  0  0  0  0  0  0  0  0  0  0  0
    8.3570   -1.9670    0.0940 C   0  0  0  0  0  0  0  0  0  0  0  0
    9.8400   -1.9910    0.1720 C   0  0  0  0  0  0  0  0  0  0  0  0
   10.4000   -3.0560    0.0780 O   0  0  0  0  0  0  0  0  0  0  0  0
   -6.2100    0.5290    0.4970 C   0  0  0  0  0  0  0  0  0  0  0  0
   -6.9070    0.1800    1.6540 C   0  0  0  0  0  0  0  0  0  0  0  0
   -8.0180    1.0930    1.8140 C   0  0  0  0  0  0  0  0  0  0  0  0
   -8.8810    1.1050    2.7380 O   0  0  0  0  0  0  0  0  0  0  0  0
   -8.0270    2.0360    0.7440 N   0  0  0  0  0  0  0  0  0  0  0  0
   -6.9030    1.6830   -0.0740 C   0  0  0  0  0  0  0  0  0  0  0  0
   -6.5510    2.2680   -1.1250 O   0  0  0  0  0  0  0  0  0  0  0  0
  1  2  1  0
  2  3  1  0
  2 30  2  0
  3  4  1  0
  4  5  1  0
  4 29  2  0
  5  6  1  0
  6  7  1  0
  7  8  1  0
  8  9  1  6
  8 10  1  0
 10 11  1  0
 11 12  1  1
 11 13  1  0
 13 14  1  0
 14 15  2  0
 14 16  1  0
 17 16  1  6
 17 18  1  0
 17 23  1  0
 18 19  2  0
 18 20  1  0
 20 21  1  0
 21 22  2  0
 22 23  1  0
 23 24  2  3
 24 25  1  0
 25 26  1  0
 26 27  1  0
 27 28  2  0
 29 30  1  0
 29 34  1  0
 30 31  1  0
 31 32  2  0
 31 33  1  0
 33 34  1  0
 34 35  2  0
M  END
