
     RDKit          3D

 35 36  0  0  0  0  0  0  0  0999 V2000
    2.5100    6.0000    2.1940 C   0  0  0  0  0  0  0  0  0  0  0  0
    2.2180    5.6290    0.9360 C   0  0  0  0  0  0  0  0  0  0  0  0
    3.2400    5.3640   -0.0770 C   0  0  0  0  0  0  0  0  0  0  0  0
    3.2250    4.0410   -0.7320 C   0  0  0  0  0  0  0  0  0  0  0  0
    3.3990    2.8340    0.1380 C   0  0  2  0  0  0  0  0  0  0  0  0
    3.3910    1.5620   -0.7400 C   0  0  0  0  0  0  0  0  0  0  0  0
    2.7750    0.4380    0.0940 C   0  0  2  0  0  0  0  0  0  0  0  0
    3.1160   -0.8600   -0.4540 C   0  0  0  0  0  0  0  0  0  0  0  0
    3.6870   -0.9060   -1.5930 O   0  0  0  0  0  0  0  0  0  0  0  0
    2.8800   -2.0870    0.1430 O   0  0  0  0  0  0  0  0  0  0  0  0
    3.2240   -3.3350   -0.4140 C   0  0  0  0  0  0  0  0  0  0  0  0
    4.6960   -3.4950   -0.6590 C   0  0  0  0  0  0  0  0  0  0  0  0
    4.9730   -4.8640   -1.2570 C   0  0  0  0  0  0  0  0  0  0  0  0
    4.5100   -5.9500   -0.3070 C   0  0  0  0  0  0  0  0  0  0  0  0
    1.3140    0.7580    0.1370 C   0  0  0  0  0  0  0  0  0  0  0  0
    0.2930   -0.1100   -0.3090 C   0  0  0  0  0  0  0  0  0  0  0  0
    0.6550   -1.2400   -0.7900 O   0  0  0  0  0  0  0  0  0  0  0  0
   -1.0570    0.1010   -0.2960 O   0  0  0  0  0  0  0  0  0  0  0  0
   -1.9650   -0.8750   -0.7990 C   0  0  0  0  0  0  0  0  0  0  0  0
   -3.4050   -0.4900   -0.7040 C   0  0  1  0  0  0  0  0  0  0  0  0
   -4.1950   -1.5850   -1.2910 C   0  0  0  0  0  0  0  0  0  0  0  0
   -4.1750   -2.0370   -3.0100 S   0  0  1  0  0  0  0  0  0  0  0  0
   -5.4200   -1.1200   -3.8070 N   0  0  0  0  0  0  0  0  0  0  0  0
   -2.8860   -1.6870   -3.6600 O   0  0  0  0  0  0  0  0  0  0  0  0
   -4.4410   -3.4890   -3.1310 O   0  0  0  0  0  0  0  0  0  0  0  0
   -4.8810   -2.1280   -0.3710 N   0  0  0  0  0  0  0  0  0  0  0  0
   -4.6490   -1.4940    0.8900 C   0  0  0  0  0  0  0  0  0  0  0  0
   -5.3210   -1.9100    2.1820 C   0  0  0  0  0  0  0  0  0  0  0  0
   -6.8200   -1.7350    1.9010 C   0  0  0  0  0  0  0  0  0  0  0  0
   -3.7850   -0.5230    0.7310 C   0  0  0  0  0  0  0  0  0  0  0  0
   -3.2820    0.3840    1.8050 C   0  0  0  0  0  0  0  0  0  0  0  0
   -3.6250    1.8230    1.5060 C   0  0  0  0  0  0  0  0  0  0  0  0
    1.0610    1.9790    0.6430 C   0  0  0  0  0  0  0  0  0  0  0  0
   -0.2930    2.5040    0.7850 C   0  0  0  0  0  0  0  0  0  0  0  0
    2.2170    2.7510    1.0230 N   0  0  0  0  0  0  0  0  0  0  0  0
  1  2  2  0
  2  3  1  0
  3  4  1  0
  5  4  1  6
  5  6  1  0
  5 35  1  0
  6  7  1  0
  7  8  1  6
  7 15  1  0
  8  9  2  0
  8 10  1  0
 10 11  1  0
 11 12  1  0
 12 13  1  0
 13 14  1  0
 15 16  1  0
 15 33  2  0
 16 17  2  0
 16 18  1  0
 18 19  1  0
 20 19  1  1
 20 21  1  0
 20 30  1  0
 21 22  1  0
 21 26  2  0
 22 23  1  6
 22 24  2  0
 22 25  2  0
 26 27  1  0
 27 28  1  0
 27 30  2  0
 28 29  1  0
 30 31  1  0
 31 32  1  0
 33 34  1  0
 33 35  1  0
M  END
