
     RDKit          3D

 32 34  0  0  0  0  0  0  0  0999 V2000
    8.5680   -3.2360    0.8140 C   0  0  0  0  0  0  0  0  0  0  0  0
    7.7650   -2.2590    0.0440 C   0  0  0  0  0  0  0  0  0  0  0  0
    7.8640   -2.2580   -1.1700 O   0  0  0  0  0  0  0  0  0  0  0  0
    6.8550   -1.2970    0.7320 C   0  0  1  0  0  0  0  0  0  0  0  0
    7.5780   -0.4090    1.7110 C   0  0  0  0  0  0  0  0  0  0  0  0
    6.1970   -0.4680   -0.2080 O   0  0  0  0  0  0  0  0  0  0  0  0
    4.8300   -0.4450   -0.4190 C   0  0  0  0  0  0  0  0  0  0  0  0
    4.1170   -1.2090    0.2720 O   0  0  0  0  0  0  0  0  0  0  0  0
    4.2110    0.4670   -1.4470 C   0  0  2  0  0  0  0  0  0  0  0  0
    2.7600    0.5330   -1.4160 N   0  0  0  0  0  0  0  0  0  0  0  0
    2.0340    0.9920   -0.2970 C   0  0  0  0  0  0  0  0  0  0  0  0
    2.6070    1.3740    0.7320 O   0  0  0  0  0  0  0  0  0  0  0  0
    0.5430    1.0300   -0.3170 C   0  0  0  0  0  0  0  0  0  0  0  0
    0.0420    0.6110   -1.3380 O   0  0  0  0  0  0  0  0  0  0  0  0
   -0.2030    1.5030    0.7390 N   0  0  0  0  0  0  0  0  0  0  0  0
   -1.5740    1.6570    1.0140 C   0  0  0  0  0  0  0  0  0  0  0  0
   -2.6230    1.3800    0.3130 C   0  0  0  0  0  0  0  0  0  0  0  0
   -2.5100    0.7650   -1.0590 C   0  0  0  0  0  0  0  0  0  0  0  0
   -4.0210    1.7490    0.7120 C   0  0  1  0  0  0  0  0  0  0  0  0
   -4.9890    0.8300    0.0190 C   0  0  0  0  0  0  0  0  0  0  0  0
   -5.8770    1.2830   -0.9270 C   0  0  0  0  0  0  0  0  0  0  0  0
   -6.7660    0.4670   -1.5660 C   0  0  0  0  0  0  0  0  0  0  0  0
   -6.7810   -0.8880   -1.2520 C   0  0  0  0  0  0  0  0  0  0  0  0
   -7.7210   -1.7030   -1.9400 N   0  0  0  0  0  0  0  0  0  0  0  0
   -5.8950   -1.3480   -0.3070 C   0  0  0  0  0  0  0  0  0  0  0  0
   -5.9190   -2.8040    0.0260 C   0  0  0  0  0  0  0  0  0  0  0  0
   -4.9950   -0.5190    0.3400 C   0  0  0  0  0  0  0  0  0  0  0  0
   -4.3060    1.8480    2.1520 C   0  0  0  0  0  0  0  0  0  0  0  0
   -3.0900    2.1670    2.8850 C   0  0  0  0  0  0  0  0  0  0  0  0
   -1.8810    2.0940    2.4250 C   0  0  0  0  0  0  0  0  0  0  0  0
    4.9220    0.8400   -2.6690 C   0  0  0  0  0  0  0  0  0  0  0  0
    4.8890    1.8200   -1.5220 C   0  0  0  0  0  0  0  0  0  0  0  0
  1  2  1  0
  2  3  2  0
  2  4  1  0
  4  5  1  1
  4  6  1  0
  6  7  1  0
  7  8  2  0
  7  9  1  0
  9 10  1  6
  9 31  1  0
  9 32  1  0
 10 11  1  0
 11 12  2  0
 11 13  1  0
 13 14  2  0
 13 15  1  0
 15 16  1  0
 16 17  2  0
 16 30  1  0
 17 18  1  0
 17 19  1  0
 19 20  1  1
 19 28  1  0
 20 21  2  0
 20 27  1  0
 21 22  1  0
 22 23  2  0
 23 24  1  0
 23 25  1  0
 25 26  1  0
 25 27  2  0
 28 29  1  0
 29 30  2  0
 31 32  1  0
M  CHG  1  24   1
M  END
