
     RDKit          3D

 32 34  0  0  0  0  0  0  0  0999 V2000
   -1.2450   -2.7280   -2.2340 C   0  0  0  0  0  0  0  0  0  0  0  0
   -0.5240   -1.6130   -2.7820 N   0  0  0  0  0  0  0  0  0  0  0  0
    0.4940   -1.1510   -1.9030 C   0  0  0  0  0  0  0  0  0  0  0  0
    0.2360   -0.3910   -0.8170 C   0  0  0  0  0  0  0  0  0  0  0  0
   -1.1520   -0.0820   -0.6120 C   0  0  0  0  0  0  0  0  0  0  0  0
   -1.7030    0.6210    0.3380 C   0  0  0  0  0  0  0  0  0  0  0  0
   -1.0180    1.2220    1.3780 O   0  0  0  0  0  0  0  0  0  0  0  0
   -1.5660    1.6670    2.6370 C   0  0  0  0  0  0  0  0  0  0  0  0
   -2.2770    0.5070    3.2470 C   0  0  0  0  0  0  0  0  0  0  0  0
   -3.4920    0.0020    2.6330 C   0  0  0  0  0  0  0  0  0  0  0  0
   -4.0760    0.6400    1.4130 C   0  0  0  0  0  0  0  0  0  0  0  0
   -3.2220    0.7570    0.2350 C   0  0  0  0  0  0  0  0  0  0  0  0
   -3.6530    0.9580   -0.9730 C   0  0  0  0  0  0  0  0  0  0  0  0
   -4.8390    1.1520   -1.6780 C   0  0  0  0  0  0  0  0  0  0  0  0
   -4.6300    1.2430   -3.0030 O   0  0  0  0  0  0  0  0  0  0  0  0
   -6.2200    1.2810   -1.3760 C   0  0  0  0  0  0  0  0  0  0  0  0
   -6.9310    1.3680   -0.2250 C   0  0  0  0  0  0  0  0  0  0  0  0
   -8.3020    1.4740   -0.5200 C   0  0  0  0  0  0  0  0  0  0  0  0
   -8.3480    1.4450   -1.8750 C   0  0  0  0  0  0  0  0  0  0  0  0
   -7.1780    1.3360   -2.3520 O   0  0  0  0  0  0  0  0  0  0  0  0
    1.3110    0.0540    0.0170 C   0  0  0  0  0  0  0  0  0  0  0  0
    1.1980    0.7710    1.0690 O   0  0  0  0  0  0  0  0  0  0  0  0
    2.6880   -0.2650   -0.2390 N   0  0  0  0  0  0  0  0  0  0  0  0
    3.7790    0.1850    0.6070 C   0  0  2  0  0  0  0  0  0  0  0  0
    4.7280    1.0950   -0.1380 C   0  0  0  0  0  0  0  0  0  0  0  0
    5.8670    0.1900   -0.4550 C   0  0  1  0  0  0  0  0  0  0  0  0
    5.8940   -0.2790   -1.8870 C   0  0  0  0  0  0  0  0  0  0  0  0
    7.1010    0.9400   -0.2080 N   0  0  0  0  0  0  0  0  0  0  0  0
    5.8380   -0.8910    0.3760 O   0  0  0  0  0  0  0  0  0  0  0  0
    4.6620   -0.9070    1.0850 C   0  0  1  0  0  0  0  0  0  0  0  0
    5.0130   -0.6410    2.5450 C   0  0  0  0  0  0  0  0  0  0  0  0
    4.0630   -2.2850    0.9920 C   0  0  0  0  0  0  0  0  0  0  0  0
  1  2  1  0
  2  3  1  0
  3  4  2  3
  4  5  1  0
  4 21  1  0
  5  6  2  3
  6  7  1  0
  6 12  1  0
  7  8  1  0
  8  9  1  0
  9 10  1  0
 10 11  1  0
 11 12  1  0
 12 13  2  3
 13 14  1  0
 14 15  2  0
 14 16  1  0
 16 17  2  0
 16 20  1  0
 17 18  1  0
 18 19  2  0
 19 20  1  0
 21 22  2  0
 21 23  1  0
 24 23  1  6
 24 25  1  0
 24 30  1  0
 25 26  1  0
 26 27  1  6
 26 28  1  0
 26 29  1  0
 29 30  1  0
 30 31  1  1
 30 32  1  0
M  CHG  1   2   1
M  END
