
     RDKit          3D

 32 33  0  0  0  0  0  0  0  0999 V2000
    4.3720   -3.5580   -1.3750 C   0  0  0  0  0  0  0  0  0  0  0  0
    4.1320   -2.1370   -1.0980 C   0  0  0  0  0  0  0  0  0  0  0  0
    2.9880   -1.5990   -0.6780 C   0  0  0  0  0  0  0  0  0  0  0  0
    2.8760   -0.2150   -0.4460 O   0  0  0  0  0  0  0  0  0  0  0  0
    2.5330    0.4240    0.7470 C   0  0  0  0  0  0  0  0  0  0  0  0
    1.9730    1.7770    0.5480 C   0  0  0  0  0  0  0  0  0  0  0  0
    2.6330    2.8060    0.0900 C   0  0  0  0  0  0  0  0  0  0  0  0
    4.0310    2.7150   -0.2810 C   0  0  0  0  0  0  0  0  0  0  0  0
    4.6550    1.6410   -0.1730 O   0  0  0  0  0  0  0  0  0  0  0  0
    4.7320    3.8320   -0.7740 O   0  0  0  0  0  0  0  0  0  0  0  0
    6.0910    3.6650   -1.1140 C   0  0  0  0  0  0  0  0  0  0  0  0
    0.5220    2.0130    0.8970 C   0  0  0  0  0  0  0  0  0  0  0  0
   -0.2430    2.2870   -0.3090 N   0  0  0  0  0  0  0  0  0  0  0  0
   -1.2940    1.5300   -0.8260 C   0  0  0  0  0  0  0  0  0  0  0  0
   -1.2610    1.2980   -2.0890 O   0  0  0  0  0  0  0  0  0  0  0  0
   -2.4410    0.9670   -0.0730 C   0  0  2  0  0  0  0  0  0  0  0  0
   -2.8630    1.9610    0.9690 C   0  0  0  0  0  0  0  0  0  0  0  0
   -3.2770    3.2630    0.3180 C   0  0  2  0  0  0  0  0  0  0  0  0
   -3.6960    4.2350    1.4010 C   0  0  0  0  0  0  0  0  0  0  0  0
   -4.4510    3.1070   -0.6110 C   0  0  0  0  0  0  0  0  0  0  0  0
   -2.0830   -0.2820    0.4900 N   0  0  0  0  0  0  0  0  0  0  0  0
   -2.9620   -0.8480    1.4520 C   0  0  0  0  0  0  0  0  0  0  0  0
   -4.2930   -1.3070    0.9230 C   0  0  0  0  0  0  0  0  0  0  0  0
   -5.0610   -0.3310    0.3410 O   0  0  0  0  0  0  0  0  0  0  0  0
   -1.6280   -1.2730   -0.4900 C   0  0  0  0  0  0  0  0  0  0  0  0
   -0.2040   -1.3850   -0.2540 N   0  0  0  0  0  0  0  0  0  0  0  0
    0.4920   -2.3220   -1.0590 C   0  0  2  0  0  0  0  0  0  0  0  0
   -0.1540   -3.6590   -1.1820 C   0  0  0  0  0  0  0  0  0  0  0  0
   -0.3000   -4.2250    0.2130 C   0  0  0  0  0  0  0  0  0  0  0  0
    1.0940   -4.6560    0.6130 C   0  0  0  0  0  0  0  0  0  0  0  0
    2.0740   -3.5990    0.2750 C   0  0  0  0  0  0  0  0  0  0  0  0
    1.8550   -2.5280   -0.4720 C   0  0  0  0  0  0  0  0  0  0  0  0
  1  2  1  0
  2  3  2  3
  3  4  1  0
  3 32  1  0
  4  5  1  0
  5  6  1  0
  6  7  2  3
  6 12  1  0
  7  8  1  0
  8  9  2  0
  8 10  1  0
 10 11  1  0
 12 13  1  0
 13 14  1  0
 14 15  2  0
 14 16  1  0
 16 17  1  1
 16 21  1  0
 17 18  1  0
 18 19  1  1
 18 20  1  0
 21 22  1  0
 21 25  1  0
 22 23  1  0
 23 24  1  0
 25 26  1  0
 26 27  1  0
 27 28  1  1
 27 32  1  0
 28 29  1  0
 29 30  1  0
 30 31  1  0
 31 32  2  0
M  CHG  1  26   1
M  END
