
     RDKit          3D

 32 34  0  0  0  0  0  0  0  0999 V2000
   -0.8560   -4.6520   -0.6340 C   0  0  0  0  0  0  0  0  0  0  0  0
   -0.8000   -3.1940   -0.3590 C   0  0  0  0  0  0  0  0  0  0  0  0
    0.3730   -2.4500   -0.4400 C   0  0  0  0  0  0  0  0  0  0  0  0
    0.0150   -1.1860   -0.0740 C   0  0  0  0  0  0  0  0  0  0  0  0
    0.9280   -0.0070   -0.1340 C   0  0  0  0  0  0  0  0  0  0  0  0
    2.2630   -0.2460   -0.5060 N   0  0  0  0  0  0  0  0  0  0  0  0
    3.2250   -1.0540    0.1690 C   0  0  0  0  0  0  0  0  0  0  0  0
    2.8680   -1.6410    1.1860 O   0  0  0  0  0  0  0  0  0  0  0  0
    4.5790   -1.1640   -0.3330 C   0  0  0  0  0  0  0  0  0  0  0  0
    4.9450   -0.5980   -1.3730 O   0  0  0  0  0  0  0  0  0  0  0  0
    5.5040   -1.9300    0.3920 O   0  0  0  0  0  0  0  0  0  0  0  0
    6.8630   -1.9740   -0.1090 C   0  0  0  0  0  0  0  0  0  0  0  0
    7.3940   -0.5790   -0.0520 C   0  0  0  0  0  0  0  0  0  0  0  0
    7.5770   -0.0740    1.1100 N   0  0  0  0  0  0  0  0  0  0  0  0
    8.0820    1.2540    1.3690 C   0  0  0  0  0  0  0  0  0  0  0  0
    8.3060    2.0840    0.1560 C   0  0  0  0  0  0  0  0  0  0  0  0
    8.0760    1.4320   -1.1330 C   0  0  0  0  0  0  0  0  0  0  0  0
    7.6500    0.1910   -1.2360 C   0  0  0  0  0  0  0  0  0  0  0  0
   -1.3360   -1.1330    0.2360 C   0  0  0  0  0  0  0  0  0  0  0  0
   -2.0540   -0.0450    0.8740 C   0  0  1  0  0  0  0  0  0  0  0  0
   -1.2500    1.0130    1.2050 O   0  0  0  0  0  0  0  0  0  0  0  0
   -3.3780    0.3560    0.3910 C   0  0  2  0  0  0  0  0  0  0  0  0
   -3.8740    1.4780    1.3260 C   0  0  0  0  0  0  0  0  0  0  0  0
   -4.7900    2.2830    0.3950 C   0  0  2  0  0  0  0  0  0  0  0  0
   -4.0320    2.8970   -0.7450 C   0  0  0  0  0  0  0  0  0  0  0  0
   -5.2230    3.4770    1.2750 C   0  0  0  0  0  0  0  0  0  0  0  0
   -5.8530    1.5270    0.1130 O   0  0  0  0  0  0  0  0  0  0  0  0
   -5.7810    0.2130   -0.1820 C   0  0  2  0  0  0  0  0  0  0  0  0
   -6.1420    0.0630   -1.6430 C   0  0  0  0  0  0  0  0  0  0  0  0
   -6.8760   -0.4870    0.5970 C   0  0  0  0  0  0  0  0  0  0  0  0
   -4.4980   -0.5210    0.1280 C   0  0  0  0  0  0  0  0  0  0  0  0
   -1.7960   -2.3870    0.0400 N   0  0  0  0  0  0  0  0  0  0  0  0
  1  2  1  0
  2  3  2  0
  2 32  1  0
  3  4  1  0
  4  5  1  0
  4 19  2  0
  5  6  1  0
  6  7  1  0
  7  8  2  0
  7  9  1  0
  9 10  2  0
  9 11  1  0
 11 12  1  0
 12 13  1  0
 13 14  2  0
 13 18  1  0
 14 15  1  0
 15 16  1  0
 16 17  1  0
 17 18  2  0
 19 20  1  0
 19 32  1  0
 20 21  1  6
 20 22  1  0
 22 23  1  1
 22 31  1  0
 23 24  1  0
 24 25  1  6
 24 26  1  0
 24 27  1  0
 27 28  1  0
 28 29  1  6
 28 30  1  0
 28 31  1  0
M  CHG  1  14   1
M  END
