
     RDKit          3D

 32 33  0  0  0  0  0  0  0  0999 V2000
    1.4830   -2.0190    3.5420 C   0  0  0  0  0  0  0  0  0  0  0  0
    1.8700   -1.0560    2.6770 C   0  0  0  0  0  0  0  0  0  0  0  0
    1.2920    0.3210    2.5580 C   0  0  0  0  0  0  0  0  0  0  0  0
    0.3270    0.8050    3.3270 C   0  0  0  0  0  0  0  0  0  0  0  0
   -0.3900    2.0400    3.4210 C   0  0  0  0  0  0  0  0  0  0  0  0
   -1.5890    2.4110    3.0140 C   0  0  0  0  0  0  0  0  0  0  0  0
   -2.6720    1.7910    2.3310 C   0  0  0  0  0  0  0  0  0  0  0  0
   -2.8620    1.1230    1.2510 C   0  0  0  0  0  0  0  0  0  0  0  0
   -4.3160    0.6550    0.9560 C   0  0  0  0  0  0  0  0  0  0  0  0
   -1.9120    0.7010    0.2150 C   0  0  2  0  0  0  0  0  0  0  0  0
   -1.1410   -0.3960    0.6830 O   0  0  0  0  0  0  0  0  0  0  0  0
   -1.1120    1.7320   -0.4860 C   0  0  1  0  0  0  0  0  0  0  0  0
   -1.0610    1.4610   -1.9350 C   0  0  0  0  0  0  0  0  0  0  0  0
   -2.2480    1.3620   -2.7750 C   0  0  1  0  0  0  0  0  0  0  0  0
   -3.0510    2.5270   -2.8340 N   0  0  0  0  0  0  0  0  0  0  0  0
   -1.7110    1.0280   -4.2020 C   0  0  0  0  0  0  0  0  0  0  0  0
   -2.8030    0.8960   -5.1960 C   0  0  0  0  0  0  0  0  0  0  0  0
   -1.1760    3.1150   -0.0020 C   0  0  0  0  0  0  0  0  0  0  0  0
   -2.2510    3.7120   -0.2970 O   0  0  0  0  0  0  0  0  0  0  0  0
   -0.1560    3.8060    0.7460 N   0  0  0  0  0  0  0  0  0  0  0  0
    1.0930    3.3380    1.2280 C   0  0  0  0  0  0  0  0  0  0  0  0
    1.5640    4.2440    2.0990 O   0  0  0  0  0  0  0  0  0  0  0  0
    1.9070    2.2050    1.0100 C   0  0  0  0  0  0  0  0  0  0  0  0
    2.0410    0.9540    1.5060 C   0  0  0  0  0  0  0  0  0  0  0  0
    3.0330   -0.0650    1.0380 C   0  0  0  0  0  0  0  0  0  0  0  0
    3.9050    0.0860    0.1070 O   0  0  0  0  0  0  0  0  0  0  0  0
    2.9000   -1.2430    1.7570 N   0  0  0  0  0  0  0  0  0  0  0  0
    3.7140   -2.4420    1.5600 C   0  0  0  0  0  0  0  0  0  0  0  0
    3.1370   -3.3970    0.5620 C   0  0  0  0  0  0  0  0  0  0  0  0
    4.0950   -4.5750    0.4780 C   0  0  0  0  0  0  0  0  0  0  0  0
    3.6390   -5.5370   -0.4010 O   0  0  0  0  0  0  0  0  0  0  0  0
    3.4740   -5.1050   -1.7020 C   0  0  0  0  0  0  0  0  0  0  0  0
  1  2  2  0
  2  3  1  0
  2 27  1  0
  3  4  2  0
  3 24  1  0
  4  5  1  0
  5  6  2  0
  6  7  1  0
  7  8  2  0
  8  9  1  0
  8 10  1  0
 10 11  1  1
 10 12  1  0
 12 13  1  6
 12 18  1  0
 13 14  1  0
 14 15  1  6
 14 16  1  0
 16 17  1  0
 18 19  2  0
 18 20  1  0
 20 21  1  0
 21 22  2  0
 21 23  1  0
 23 24  2  0
 24 25  1  0
 25 26  2  0
 25 27  1  0
 27 28  1  0
 28 29  1  0
 29 30  1  0
 30 31  1  0
 31 32  1  0
M  CHG  1  15   1
M  END
