
     RDKit          3D

 32 34  0  0  0  0  0  0  0  0999 V2000
    3.4650   -0.0370   -4.9300 C   0  0  0  0  0  0  0  0  0  0  0  0
    2.2130    0.1330   -4.1220 C   0  0  0  0  0  0  0  0  0  0  0  0
    2.2670    0.0300   -2.8070 C   0  0  0  0  0  0  0  0  0  0  0  0
    3.4840   -0.2290   -2.2620 N   0  0  0  0  0  0  0  0  0  0  0  0
    3.6320   -0.3500   -0.9410 C   0  0  0  0  0  0  0  0  0  0  0  0
    4.9890   -0.6380   -0.3420 C   0  0  0  0  0  0  0  0  0  0  0  0
    5.6030    0.6340   -0.0350 N   0  0  0  0  0  0  0  0  0  0  0  0
    7.0280    0.6030   -0.0100 C   0  0  2  0  0  0  0  0  0  0  0  0
    7.6020   -0.6820   -0.5720 C   0  0  0  0  0  0  0  0  0  0  0  0
    7.6660    0.8840    1.3070 C   0  0  0  0  0  0  0  0  0  0  0  0
    7.3180   -0.0460    2.4150 C   0  0  0  0  0  0  0  0  0  0  0  0
    5.9800   -0.0810    2.7190 O   0  0  0  0  0  0  0  0  0  0  0  0
    2.5250   -0.2070   -0.1390 C   0  0  0  0  0  0  0  0  0  0  0  0
    1.2860    0.0550   -0.6620 C   0  0  0  0  0  0  0  0  0  0  0  0
    1.1330    0.1820   -2.0520 C   0  0  0  0  0  0  0  0  0  0  0  0
   -0.0770    0.4360   -2.5430 C   0  0  0  0  0  0  0  0  0  0  0  0
   -1.2110    0.5770   -1.6260 C   0  0  0  0  0  0  0  0  0  0  0  0
   -1.4810    1.5750   -0.7420 C   0  0  0  0  0  0  0  0  0  0  0  0
   -2.6630    1.2360   -0.1210 C   0  0  0  0  0  0  0  0  0  0  0  0
   -3.0720    0.0340   -0.6520 C   0  0  0  0  0  0  0  0  0  0  0  0
   -4.2570   -0.7250   -0.3170 C   0  0  0  0  0  0  0  0  0  0  0  0
   -4.4900   -1.8250   -0.9070 O   0  0  0  0  0  0  0  0  0  0  0  0
   -5.2090   -0.3280    0.6460 N   0  0  0  0  0  0  0  0  0  0  0  0
   -6.3750   -1.1130    0.9480 C   0  0  2  0  0  0  0  0  0  0  0  0
   -7.6640   -0.3690    0.6900 C   0  0  2  0  0  0  0  0  0  0  0  0
   -7.4720    1.1100    0.5750 C   0  0  0  0  0  0  0  0  0  0  0  0
   -8.6540   -0.6640    1.8070 C   0  0  0  0  0  0  0  0  0  0  0  0
   -8.2410   -0.1620    3.0180 O   0  0  0  0  0  0  0  0  0  0  0  0
   -6.9470   -0.5180    3.3200 C   0  0  0  0  0  0  0  0  0  0  0  0
   -6.3690   -1.5580    2.3950 C   0  0  2  0  0  0  0  0  0  0  0  0
   -5.0410   -1.7620    2.7720 O   0  0  0  0  0  0  0  0  0  0  0  0
   -2.1690   -0.3010   -1.5360 O   0  0  0  0  0  0  0  0  0  0  0  0
  1  2  1  0
  2  3  2  3
  3  4  1  0
  3 15  1  0
  4  5  2  0
  5  6  1  0
  5 13  1  0
  6  7  1  0
  7  8  1  0
  8  9  1  1
  8 10  1  0
 10 11  1  0
 11 12  1  0
 13 14  2  0
 14 15  1  0
 15 16  2  3
 16 17  1  0
 17 18  2  0
 17 32  1  0
 18 19  1  0
 19 20  2  0
 20 21  1  0
 20 32  1  0
 21 22  2  0
 21 23  1  0
 24 23  1  1
 24 25  1  0
 24 30  1  0
 25 26  1  1
 25 27  1  0
 27 28  1  0
 28 29  1  0
 29 30  1  0
 30 31  1  1
M  CHG  1   7   1
M  END
