
     RDKit          3D

 32 34  0  0  0  0  0  0  0  0999 V2000
    6.7200    1.1470    1.7140 C   0  0  0  0  0  0  0  0  0  0  0  0
    7.3530    0.0680    1.3710 C   0  0  0  0  0  0  0  0  0  0  0  0
    8.7680    0.0870    1.4600 O   0  0  0  0  0  0  0  0  0  0  0  0
    6.6570   -1.1120    0.9080 C   0  0  0  0  0  0  0  0  0  0  0  0
    7.4030   -2.1720    0.6210 C   0  0  0  0  0  0  0  0  0  0  0  0
    5.1930   -1.1270    0.7740 C   0  0  0  0  0  0  0  0  0  0  0  0
    4.8020   -0.3750   -0.4600 C   0  0  0  0  0  0  0  0  0  0  0  0
    3.4260   -0.2920   -0.6990 O   0  0  0  0  0  0  0  0  0  0  0  0
    2.4870    0.2810    0.1110 C   0  0  0  0  0  0  0  0  0  0  0  0
    3.0110    0.7700    1.1870 O   0  0  0  0  0  0  0  0  0  0  0  0
    1.0530    0.4030   -0.0830 C   0  0  0  0  0  0  0  0  0  0  0  0
    0.3390   -0.0530   -1.0710 C   0  0  0  0  0  0  0  0  0  0  0  0
    0.9820   -0.7980   -2.1420 C   0  0  0  0  0  0  0  0  0  0  0  0
    2.0310   -1.4140   -1.8960 O   0  0  0  0  0  0  0  0  0  0  0  0
    0.3950   -0.8120   -3.4610 N   0  0  0  0  0  0  0  0  0  0  0  0
   -0.8060   -0.0870   -3.6490 C   0  0  0  0  0  0  0  0  0  0  0  0
   -1.4590   -0.2790   -4.7240 O   0  0  0  0  0  0  0  0  0  0  0  0
   -1.2720    0.8610   -2.6170 C   0  0  0  0  0  0  0  0  0  0  0  0
   -1.1310    0.1520   -1.2590 C   0  0  2  0  0  0  0  0  0  0  0  0
   -1.7360    1.0350   -0.1790 C   0  0  1  0  0  0  0  0  0  0  0  0
   -1.4480    2.4890   -0.4690 C   0  0  0  0  0  0  0  0  0  0  0  0
   -3.1710    0.7460   -0.0250 C   0  0  0  0  0  0  0  0  0  0  0  0
   -4.1210    1.5310   -0.6340 C   0  0  0  0  0  0  0  0  0  0  0  0
   -5.4960    1.2850   -0.5100 C   0  0  0  0  0  0  0  0  0  0  0  0
   -5.9340    0.2240    0.2450 C   0  0  0  0  0  0  0  0  0  0  0  0
   -7.4040   -0.0330    0.3710 C   0  0  0  0  0  0  0  0  0  0  0  0
   -5.0100   -0.5900    0.8740 C   0  0  0  0  0  0  0  0  0  0  0  0
   -5.4520   -1.6880    1.6540 N   0  0  0  0  0  0  0  0  0  0  0  0
   -4.5980   -2.6050    2.3480 C   0  0  0  0  0  0  0  0  0  0  0  0
   -3.6490   -0.3100    0.7260 C   0  0  0  0  0  0  0  0  0  0  0  0
   -1.0540    0.7020    1.0530 N   0  0  0  0  0  0  0  0  0  0  0  0
    0.3100    1.1360    1.0250 C   0  0  0  0  0  0  0  0  0  0  0  0
  1  2  2  0
  2  3  1  0
  2  4  1  0
  4  5  2  0
  4  6  1  0
  6  7  1  0
  7  8  1  0
  8  9  1  0
  9 10  2  0
  9 11  1  0
 11 12  2  0
 11 32  1  0
 12 13  1  0
 12 19  1  0
 13 14  2  0
 13 15  1  0
 15 16  1  0
 16 17  2  0
 16 18  1  0
 19 18  1  6
 19 20  1  0
 20 21  1  6
 20 22  1  0
 20 31  1  0
 22 23  2  0
 22 30  1  0
 23 24  1  0
 24 25  2  0
 25 26  1  0
 25 27  1  0
 27 28  1  0
 27 30  2  0
 28 29  1  0
 31 32  1  0
M  CHG  1  31   1
M  END
