
     RDKit          3D

 26 27  0  0  0  0  0  0  0  0999 V2000
    4.5930    4.2530    2.2330 O   0  0  0  0  0  0  0  0  0  0  0  0
    3.9780    3.0160    2.8890 P   0  0  0  0  0  0  0  0  0  0  0  0
    3.6940    1.6020    1.9510 O   0  0  0  0  0  0  0  0  0  0  0  0
    3.7630    1.8700    0.5640 C   0  0  0  0  0  0  0  0  0  0  0  0
    3.4990    0.5690   -0.1350 C   0  0  0  0  0  0  0  0  0  0  0  0
    2.1710    0.0410    0.2140 N   0  0  0  0  0  0  0  0  0  0  0  0
    1.7150   -1.1860   -0.3380 C   0  0  0  0  0  0  0  0  0  0  0  0
    2.2770   -1.5870   -1.4330 N   0  0  0  0  0  0  0  0  0  0  0  0
    1.8860   -2.8190   -2.0740 C   0  0  0  0  0  0  0  0  0  0  0  0
    2.5430   -3.2960   -3.0090 O   0  0  0  0  0  0  0  0  0  0  0  0
    0.6450   -3.4480   -1.5170 C   0  0  0  0  0  0  0  0  0  0  0  0
    0.6910   -3.2980   -0.1540 O   0  0  0  0  0  0  0  0  0  0  0  0
    0.6410   -1.9990    0.2910 C   0  0  1  0  0  0  0  0  0  0  0  0
    0.8150   -2.0470    1.6940 O   0  0  0  0  0  0  0  0  0  0  0  0
   -0.6990   -1.4010    0.0690 C   0  0  0  0  0  0  0  0  0  0  0  0
   -1.7140   -2.1920   -0.3010 N   0  0  0  0  0  0  0  0  0  0  0  0
   -2.9390   -1.7240   -0.5170 C   0  0  0  0  0  0  0  0  0  0  0  0
   -3.9900   -2.5730   -0.9050 O   0  0  0  0  0  0  0  0  0  0  0  0
   -3.1500   -0.3960   -0.3510 N   0  0  0  0  0  0  0  0  0  0  0  0
   -2.1650    0.4370    0.0190 C   0  0  0  0  0  0  0  0  0  0  0  0
   -2.4850    1.8750    0.1770 C   0  0  2  0  0  0  0  0  0  0  0  0
   -1.9040    2.3660    1.3690 O   0  0  0  0  0  0  0  0  0  0  0  0
   -4.3170    2.0650    0.3850 P   0  0  0  0  0  0  0  0  0  0  0  0
   -5.1450    2.0250   -1.1350 O   0  0  0  0  0  0  0  0  0  0  0  0
   -4.7170    3.4880    1.2860 O   0  0  0  0  0  0  0  0  0  0  0  0
   -0.9500   -0.0940    0.2220 N   0  0  0  0  0  0  0  0  0  0  0  0
  1  2  2  0
  2  3  1  0
  3  4  1  0
  4  5  1  0
  5  6  1  0
  6  7  1  0
  7  8  2  0
  7 13  1  0
  8  9  1  0
  9 10  2  0
  9 11  1  0
 11 12  1  0
 12 13  1  0
 13 14  1  1
 13 15  1  0
 15 16  2  0
 15 26  1  0
 16 17  1  0
 17 18  1  0
 17 19  2  0
 19 20  1  0
 20 21  1  0
 20 26  2  0
 21 22  1  1
 21 23  1  0
 23 24  1  0
 23 25  1  0
M  END
