
     RDKit          3D

 27 28  0  0  0  0  0  0  0  0999 V2000
   -5.1390    1.5810    1.9510 C   0  0  0  0  0  0  0  0  0  0  0  0
   -3.8590    1.2610    1.3800 N   0  0  0  0  0  0  0  0  0  0  0  0
   -3.2120    0.2680    1.9830 O   0  0  0  0  0  0  0  0  0  0  0  0
   -2.5360   -0.4670    1.0140 C   0  0  2  0  0  0  0  0  0  0  0  0
   -1.0400   -0.4170    1.1950 C   0  0  0  0  0  0  0  0  0  0  0  0
   -0.5390    0.6320    0.3480 N   0  0  0  0  0  0  0  0  0  0  0  0
    0.7700    1.0080   -0.0160 C   0  0  0  0  0  0  0  0  0  0  0  0
    0.9450    2.0350   -0.7980 O   0  0  0  0  0  0  0  0  0  0  0  0
    1.9840    0.3970    0.3680 N   0  0  0  0  0  0  0  0  0  0  0  0
    2.1640   -0.7540    1.1880 C   0  0  0  0  0  0  0  0  0  0  0  0
    2.2150   -2.3420    0.2270 P   0  0  0  0  0  0  0  0  0  0  0  0
    1.1260   -3.5200    0.8760 O   0  0  0  0  0  0  0  0  0  0  0  0
    3.7990   -2.9480    0.0170 O   0  0  0  0  0  0  0  0  0  0  0  0
    3.2060    1.0050   -0.1310 C   0  0  0  0  0  0  0  0  0  0  0  0
    3.4010    2.2240    0.2130 N   0  0  0  0  0  0  0  0  0  0  0  0
    4.1340    0.3330   -0.9380 N   0  0  0  0  0  0  0  0  0  0  0  0
    5.7860    0.9850   -1.2430 P   0  0  0  0  0  0  0  0  0  0  0  0
    5.7650    2.2680   -2.3910 O   0  0  0  0  0  0  0  0  0  0  0  0
    6.5070    1.5220    0.2250 O   0  0  0  0  0  0  0  0  0  0  0  0
   -1.7050    1.3370   -0.1540 C   0  0  0  0  0  0  0  0  0  0  0  0
   -1.6900    2.5530   -0.4530 O   0  0  0  0  0  0  0  0  0  0  0  0
   -2.8070    0.3420   -0.2150 C   0  0  1  0  0  0  0  0  0  0  0  0
   -2.8050   -0.4330   -1.4950 C   0  0  0  0  0  0  0  0  0  0  0  0
   -3.8120   -1.4990   -1.5480 C   0  0  0  0  0  0  0  0  0  0  0  0
   -3.9040   -2.2610   -2.5300 O   0  0  0  0  0  0  0  0  0  0  0  0
   -4.6890   -1.6770   -0.4930 O   0  0  0  0  0  0  0  0  0  0  0  0
   -4.0380    0.9090    0.0830 O   0  0  0  0  0  0  0  0  0  0  0  0
  1  2  1  0
  2  3  1  0
  2 27  1  0
  3  4  1  0
  4  5  1  1
  4 22  1  0
  5  6  1  0
  6  7  1  0
  6 20  1  0
  7  8  2  0
  7  9  1  0
  9 10  1  0
  9 14  1  0
 10 11  1  0
 11 12  1  0
 11 13  1  0
 14 15  2  0
 14 16  1  0
 16 17  1  0
 17 18  1  0
 17 19  1  0
 20 21  2  0
 20 22  1  0
 22 23  1  6
 22 27  1  0
 23 24  1  0
 24 25  2  0
 24 26  1  0
M  END
