
     RDKit          3D

 26 27  0  0  0  0  0  0  0  0999 V2000
   -4.1830    1.5590   -2.0690 N   0  0  0  0  0  0  0  0  0  0  0  0
   -3.9110    0.6060   -1.0530 C   0  0  0  0  0  0  0  0  0  0  0  0
   -2.7720    0.7300   -0.4970 N   0  0  0  0  0  0  0  0  0  0  0  0
   -2.2250   -0.0560    0.5520 C   0  0  0  0  0  0  0  0  0  0  0  0
   -1.1050    0.1430    1.4220 N   0  0  0  0  0  0  0  0  0  0  0  0
    0.0740    0.2290    0.7040 C   0  0  0  0  0  0  0  0  0  0  0  0
   -0.1290   -0.0070   -0.5450 O   0  0  0  0  0  0  0  0  0  0  0  0
    1.2930    0.5040    1.2160 O   0  0  0  0  0  0  0  0  0  0  0  0
    2.3780    0.4920    0.2570 C   0  0  0  0  0  0  0  0  0  0  0  0
    3.5890    0.7520    1.1220 C   0  0  2  0  0  0  0  0  0  0  0  0
    3.5150    1.9800    1.7690 O   0  0  0  0  0  0  0  0  0  0  0  0
    4.8370    0.7430    0.2740 C   0  0  0  0  0  0  0  0  0  0  0  0
    4.9660   -0.4690   -0.4110 O   0  0  0  0  0  0  0  0  0  0  0  0
    6.3750   -0.5200   -1.3880 P   0  0  0  0  0  0  0  0  0  0  0  0
    6.9740    1.0510   -1.7770 O   0  0  0  0  0  0  0  0  0  0  0  0
    7.5900   -1.5760   -0.7980 O   0  0  0  0  0  0  0  0  0  0  0  0
    3.6850   -0.5660    2.4480 P   0  0  0  0  0  0  0  0  0  0  0  0
    5.0250   -1.2970    2.7430 O   0  0  0  0  0  0  0  0  0  0  0  0
   -2.9450   -0.9490    0.9590 N   0  0  0  0  0  0  0  0  0  0  0  0
   -4.1820   -1.2400    0.4560 C   0  0  0  0  0  0  0  0  0  0  0  0
   -4.8190   -2.2660    0.8910 N   0  0  0  0  0  0  0  0  0  0  0  0
   -6.0990   -2.5710    0.3850 C   0  0  0  0  0  0  0  0  0  0  0  0
   -6.7060   -3.5770    0.8030 O   0  0  0  0  0  0  0  0  0  0  0  0
   -6.7190   -1.7860   -0.5780 O   0  0  0  0  0  0  0  0  0  0  0  0
   -6.2230   -0.4180   -0.6540 C   0  0  0  0  0  0  0  0  0  0  0  0
   -4.7460   -0.5050   -0.6930 C   0  0  1  0  0  0  0  0  0  0  0  0
  1  2  1  0
  2  3  2  0
  2 26  1  0
  3  4  1  0
  4  5  1  0
  4 19  2  0
  5  6  1  0
  6  7  2  0
  6  8  1  0
  8  9  1  0
  9 10  1  0
 10 11  1  1
 10 12  1  0
 10 17  1  0
 12 13  1  0
 13 14  1  0
 14 15  1  0
 14 16  1  0
 17 18  2  0
 19 20  1  0
 20 21  2  0
 20 26  1  0
 21 22  1  0
 22 23  2  0
 22 24  1  0
 24 25  1  0
 26 25  1  1
M  END
