
     RDKit          3D

 26 28  0  0  0  0  0  0  0  0999 V2000
   -2.5020    1.0970    1.3600 N   0  0  0  0  0  0  0  0  0  0  0  0
   -3.1260   -0.0770    0.9030 C   0  0  0  0  0  0  0  0  0  0  0  0
   -4.3690   -0.4910    1.2010 N   0  0  0  0  0  0  0  0  0  0  0  0
   -4.6230   -1.6330    0.5970 N   0  0  0  0  0  0  0  0  0  0  0  0
   -3.5560   -1.9620   -0.0880 N   0  0  0  0  0  0  0  0  0  0  0  0
   -2.6030   -1.0360    0.0650 C   0  0  0  0  0  0  0  0  0  0  0  0
   -1.2660   -1.0790   -0.5610 C   0  0  1  0  0  0  0  0  0  0  0  0
   -1.2100   -2.2860   -1.3460 O   0  0  0  0  0  0  0  0  0  0  0  0
   -1.6620   -1.9940   -2.6210 C   0  0  0  0  0  0  0  0  0  0  0  0
   -1.8870   -2.8280   -3.5150 O   0  0  0  0  0  0  0  0  0  0  0  0
   -1.8210   -0.5230   -2.7080 C   0  0  0  0  0  0  0  0  0  0  0  0
   -1.0660   -0.1020   -1.5650 N   0  0  0  0  0  0  0  0  0  0  0  0
   -0.2520    1.0140   -1.3370 C   0  0  0  0  0  0  0  0  0  0  0  0
   -0.2600    2.0580   -2.0510 O   0  0  0  0  0  0  0  0  0  0  0  0
    0.6750    0.9550   -0.1800 C   0  0  1  0  0  0  0  0  0  0  0  0
    0.5750    2.1840    0.4730 O   0  0  0  0  0  0  0  0  0  0  0  0
    1.7110    2.9570    0.3610 C   0  0  0  0  0  0  0  0  0  0  0  0
    1.4250    4.5500    1.2750 P   0  0  0  0  0  0  0  0  0  0  0  0
    2.4790    5.6890    1.0650 O   0  0  0  0  0  0  0  0  0  0  0  0
    0.4740   -0.1860    0.7300 C   0  0  2  0  0  0  0  0  0  0  0  0
    1.8580   -0.7760    1.0530 C   0  0  0  0  0  0  0  0  0  0  0  0
    2.3700   -1.4480   -0.0530 O   0  0  0  0  0  0  0  0  0  0  0  0
    3.9200   -2.0870    0.3640 P   0  0  0  0  0  0  0  0  0  0  0  0
    4.1740   -2.0370    2.0950 O   0  0  0  0  0  0  0  0  0  0  0  0
    5.1900   -1.2330   -0.4530 O   0  0  0  0  0  0  0  0  0  0  0  0
   -0.3310   -1.1950    0.4010 O   0  0  0  0  0  0  0  0  0  0  0  0
  1  2  1  0
  2  3  2  0
  2  6  1  0
  3  4  1  0
  4  5  1  0
  5  6  2  0
  7  6  1  1
  7  8  1  0
  7 12  1  0
  7 26  1  0
  8  9  1  0
  9 10  2  0
  9 11  1  0
 11 12  1  0
 12 13  1  0
 13 14  2  0
 13 15  1  0
 15 16  1  1
 15 20  1  0
 16 17  1  0
 17 18  1  0
 18 19  2  0
 20 21  1  6
 20 26  1  0
 21 22  1  0
 22 23  1  0
 23 24  1  0
 23 25  1  0
M  END
