
     RDKit          3D

 31 32  0  0  0  0  0  0  0  0999 V2000
   -3.9700   -1.5450   -0.6320 N   0  0  0  0  0  0  0  0  0  0  0  0
   -3.3060   -1.0580    0.3460 C   0  0  0  0  0  0  0  0  0  0  0  0
   -3.8420   -1.1950    1.6480 N   0  0  0  0  0  0  0  0  0  0  0  0
   -5.5170   -1.8370    1.8950 P   0  0  0  0  0  0  0  0  0  0  0  0
   -5.9050   -2.9630    0.6050 O   0  0  0  0  0  0  0  0  0  0  0  0
   -6.5930   -0.4750    1.8100 O   0  0  0  0  0  0  0  0  0  0  0  0
   -2.0850   -0.4150    0.0790 N   0  0  0  0  0  0  0  0  0  0  0  0
   -0.8070   -0.8390    0.6220 C   0  0  0  0  0  0  0  0  0  0  0  0
    0.1880    0.2430    0.2550 C   0  0  1  0  0  0  0  0  0  0  0  0
    1.2990   -0.4240   -0.4980 C   0  0  1  0  0  0  0  0  0  0  0  0
    2.3420    0.4810   -0.9730 C   0  0  0  0  0  0  0  0  0  0  0  0
    2.3070    0.7700   -2.1990 O   0  0  0  0  0  0  0  0  0  0  0  0
    3.3990    1.0970   -0.2790 O   0  0  0  0  0  0  0  0  0  0  0  0
    4.0570    0.6120    0.8510 C   0  0  0  0  0  0  0  0  0  0  0  0
    4.6610    1.4540    1.5340 O   0  0  0  0  0  0  0  0  0  0  0  0
    4.1130   -0.7100    1.3000 N   0  0  0  0  0  0  0  0  0  0  0  0
    3.6550   -1.8730    0.5510 C   0  0  2  0  0  0  0  0  0  0  0  0
    4.3480   -1.7490   -1.1680 P   0  0  0  0  0  0  0  0  0  0  0  0
    3.2400   -2.5940   -2.2320 O   0  0  0  0  0  0  0  0  0  0  0  0
    5.8560   -2.5990   -1.2310 O   0  0  0  0  0  0  0  0  0  0  0  0
    1.8740   -1.7640    0.5050 S   0  0  2  0  0  0  0  0  0  0  0  0
    1.3200   -3.0720    0.0080 O   0  0  0  0  0  0  0  0  0  0  0  0
    1.3650   -1.5820    1.9230 O   0  0  0  0  0  0  0  0  0  0  0  0
   -0.5420    1.2590   -0.3980 N   0  0  0  0  0  0  0  0  0  0  0  0
   -0.1640    2.6070   -0.7140 C   0  0  0  0  0  0  0  0  0  0  0  0
   -0.5160    3.5790    0.3990 C   0  0  0  0  0  0  0  0  0  0  0  0
   -0.0950    4.8480   -0.0390 O   0  0  0  0  0  0  0  0  0  0  0  0
   -0.4490    6.0540    1.1650 P   0  0  0  0  0  0  0  0  0  0  0  0
   -1.8260    6.7680    1.0750 O   0  0  0  0  0  0  0  0  0  0  0  0
   -1.8160    0.7170   -0.7230 C   0  0  0  0  0  0  0  0  0  0  0  0
   -2.6520    1.1300   -1.5940 O   0  0  0  0  0  0  0  0  0  0  0  0
  1  2  2  0
  2  3  1  0
  2  7  1  0
  3  4  1  0
  4  5  1  0
  4  6  1  0
  7  8  1  0
  7 30  1  0
  9  8  1  6
  9 10  1  0
  9 24  1  0
 10 11  1  1
 10 21  1  0
 11 12  2  0
 11 13  1  0
 13 14  1  0
 14 15  2  0
 14 16  1  0
 16 17  1  0
 17 18  1  6
 21 17  1  1
 18 19  1  0
 18 20  1  0
 21 22  2  0
 21 23  2  0
 24 25  1  0
 24 30  1  0
 25 26  1  0
 26 27  1  0
 27 28  1  0
 28 29  2  0
 30 31  2  0
M  END
