
     RDKit          3D

 30 32  0  0  0  0  0  0  0  0999 V2000
   -7.4400   -0.9440   -2.7380 C   0  0  0  0  0  0  0  0  0  0  0  0
   -6.2500   -0.2250   -2.9560 O   0  0  0  0  0  0  0  0  0  0  0  0
   -5.3390    0.0760   -1.9660 C   0  0  0  0  0  0  0  0  0  0  0  0
   -5.5090   -0.2990   -0.6660 C   0  0  0  0  0  0  0  0  0  0  0  0
   -4.5560    0.0330    0.2920 C   0  0  0  0  0  0  0  0  0  0  0  0
   -3.4200    0.7440   -0.0320 C   0  0  0  0  0  0  0  0  0  0  0  0
   -2.4310    1.0750    1.0240 C   0  0  1  0  0  0  0  0  0  0  0  0
   -1.1200    0.8580    0.6400 O   0  0  0  0  0  0  0  0  0  0  0  0
   -0.1710    0.0170    1.1210 C   0  0  0  0  0  0  0  0  0  0  0  0
   -0.3950   -0.8360    2.1730 C   0  0  0  0  0  0  0  0  0  0  0  0
    0.6250   -1.6510    2.5910 C   0  0  0  0  0  0  0  0  0  0  0  0
    1.8740   -1.6140    1.9550 C   0  0  0  0  0  0  0  0  0  0  0  0
    2.1310   -0.7800    0.9080 C   0  0  0  0  0  0  0  0  0  0  0  0
    3.3730   -0.6870    0.2290 N   0  0  0  0  0  0  0  0  0  0  0  0
    4.5760   -1.3100    0.5940 C   0  0  0  0  0  0  0  0  0  0  0  0
    4.6180   -2.0320    1.6190 O   0  0  0  0  0  0  0  0  0  0  0  0
    5.8230   -1.1670   -0.1660 C   0  0  0  0  0  0  0  0  0  0  0  0
    5.9030   -0.5730   -1.4040 C   0  0  0  0  0  0  0  0  0  0  0  0
    7.1110   -0.4560   -2.0850 C   0  0  0  0  0  0  0  0  0  0  0  0
    8.2870   -0.9310   -1.5510 C   0  0  0  0  0  0  0  0  0  0  0  0
    9.8730   -0.7750   -2.4490 P   0  0  0  0  0  0  0  0  0  0  0  0
    9.9590    0.3060   -3.5680 O   0  0  0  0  0  0  0  0  0  0  0  0
    8.1960   -1.5240   -0.3120 C   0  0  0  0  0  0  0  0  0  0  0  0
    7.0120   -1.6470    0.3740 C   0  0  0  0  0  0  0  0  0  0  0  0
    1.0610    0.0300    0.5190 C   0  0  0  0  0  0  0  0  0  0  0  0
   -2.6580    2.4690    1.5900 C   0  0  2  0  0  0  0  0  0  0  0  0
   -4.0390    2.5880    2.2020 C   0  0  0  0  0  0  0  0  0  0  0  0
   -2.3670    3.4710    0.7090 O   0  0  0  0  0  0  0  0  0  0  0  0
   -3.2670    1.1130   -1.3480 C   0  0  0  0  0  0  0  0  0  0  0  0
   -4.2100    0.7870   -2.3070 C   0  0  0  0  0  0  0  0  0  0  0  0
  1  2  1  0
  2  3  1  0
  3  4  2  0
  3 30  1  0
  4  5  1  0
  5  6  2  0
  6  7  1  0
  6 29  1  0
  7  8  1  6
  7 26  1  0
  8  9  1  0
  9 10  2  0
  9 25  1  0
 10 11  1  0
 11 12  2  0
 12 13  1  0
 13 14  1  0
 13 25  2  0
 14 15  1  0
 15 16  2  0
 15 17  1  0
 17 18  2  0
 17 24  1  0
 18 19  1  0
 19 20  2  0
 20 21  1  0
 20 23  1  0
 21 22  2  0
 23 24  2  0
 26 27  1  6
 26 28  1  0
 29 30  2  0
M  END
