
     RDKit          3D

 30 32  0  0  0  0  0  0  0  0999 V2000
    7.7430    3.1870   -0.9150 C   0  0  0  0  0  0  0  0  0  0  0  0
    6.9180    3.0960    0.3370 C   0  0  0  0  0  0  0  0  0  0  0  0
    5.9180    1.9680    0.2160 C   0  0  0  0  0  0  0  0  0  0  0  0
    6.5540    0.7170    0.0240 O   0  0  0  0  0  0  0  0  0  0  0  0
    5.7300   -0.4020   -0.0970 C   0  0  0  0  0  0  0  0  0  0  0  0
    6.2360   -1.6700   -0.2860 C   0  0  0  0  0  0  0  0  0  0  0  0
    5.4170   -2.7830   -0.4050 C   0  0  0  0  0  0  0  0  0  0  0  0
    4.0440   -2.6650   -0.3410 C   0  0  0  0  0  0  0  0  0  0  0  0
    3.5340   -1.4050   -0.1540 C   0  0  0  0  0  0  0  0  0  0  0  0
    4.3330   -0.2970   -0.0330 C   0  0  0  0  0  0  0  0  0  0  0  0
    2.0610   -1.5420   -0.1230 C   0  0  0  0  0  0  0  0  0  0  0  0
    1.2940   -0.5720    0.3150 C   0  0  0  0  0  0  0  0  0  0  0  0
   -0.1370   -0.7110    0.3500 C   0  0  0  0  0  0  0  0  0  0  0  0
   -0.9120    0.2330   -0.2910 C   0  0  0  0  0  0  0  0  0  0  0  0
   -2.3010    0.1850   -0.2740 C   0  0  0  0  0  0  0  0  0  0  0  0
   -2.9080   -0.8540    0.4150 C   0  0  0  0  0  0  0  0  0  0  0  0
   -4.3220   -0.9430    0.4350 N   0  0  0  0  0  0  0  0  0  0  0  0
   -5.2100    0.0240   -0.1510 C   0  0  1  0  0  0  0  0  0  0  0  0
   -6.6430   -0.5450   -0.1690 C   0  0  0  0  0  0  0  0  0  0  0  0
   -5.2300    1.2620    0.7300 C   0  0  0  0  0  0  0  0  0  0  0  0
   -6.1410    2.3150    0.1590 C   0  0  0  0  0  0  0  0  0  0  0  0
   -5.6350    2.8590   -1.5290 P   0  0  0  0  0  0  0  0  0  0  0  0
   -6.0450    1.6840   -2.7120 O   0  0  0  0  0  0  0  0  0  0  0  0
   -3.9960    3.3500   -1.6260 O   0  0  0  0  0  0  0  0  0  0  0  0
   -2.1640   -1.8070    1.0620 C   0  0  0  0  0  0  0  0  0  0  0  0
   -2.8190   -2.9020    1.7870 C   0  0  0  0  0  0  0  0  0  0  0  0
   -1.8900   -3.7680    2.3830 O   0  0  0  0  0  0  0  0  0  0  0  0
   -0.7930   -1.7130    1.0150 C   0  0  0  0  0  0  0  0  0  0  0  0
    1.7640   -2.8750   -0.6980 C   0  0  0  0  0  0  0  0  0  0  0  0
    2.9720   -3.5740   -0.4230 O   0  0  0  0  0  0  0  0  0  0  0  0
  1  2  1  0
  2  3  1  0
  3  4  1  0
  4  5  1  0
  5  6  2  0
  5 10  1  0
  6  7  1  0
  7  8  2  0
  8  9  1  0
  8 30  1  0
  9 10  2  0
  9 11  1  0
 11 12  2  3
 11 29  1  0
 12 13  1  0
 13 14  2  0
 13 28  1  0
 14 15  1  0
 15 16  2  0
 16 17  1  0
 16 25  1  0
 17 18  1  0
 18 19  1  1
 18 20  1  0
 20 21  1  0
 21 22  1  0
 22 23  1  0
 22 24  1  0
 25 26  1  0
 25 28  2  0
 26 27  1  0
 29 30  1  0
M  END
