
     RDKit          3D

 29 31  0  0  0  0  0  0  0  0999 V2000
   -6.5200    3.0590    1.9220 C   0  0  0  0  0  0  0  0  0  0  0  0
   -5.4510    2.1370    1.8690 O   0  0  0  0  0  0  0  0  0  0  0  0
   -5.8540    0.9860    0.6410 P   0  0  0  0  0  0  0  0  0  0  0  0
   -6.8800   -0.4030    1.3130 C   0  0  0  0  0  0  0  0  0  0  0  0
   -4.4000    0.3930   -0.2610 C   0  0  0  0  0  0  0  0  0  0  0  0
   -3.7600   -0.7980   -0.0020 C   0  0  0  0  0  0  0  0  0  0  0  0
   -2.6550   -1.2470   -0.6890 C   0  0  0  0  0  0  0  0  0  0  0  0
   -2.1410   -0.4770   -1.7010 C   0  0  0  0  0  0  0  0  0  0  0  0
   -1.0100   -0.8630   -2.4630 N   0  0  0  0  0  0  0  0  0  0  0  0
   -0.2870   -2.0970   -2.3570 C   0  0  2  0  0  0  0  0  0  0  0  0
   -1.0870   -3.3040   -2.6660 C   0  0  0  0  0  0  0  0  0  0  0  0
    0.4070   -2.0970   -1.0580 C   0  0  0  0  0  0  0  0  0  0  0  0
    0.5060   -3.1640   -0.1990 C   0  0  0  0  0  0  0  0  0  0  0  0
    1.1930   -2.9980    0.9900 C   0  0  0  0  0  0  0  0  0  0  0  0
    1.7790   -1.8140    1.3470 C   0  0  0  0  0  0  0  0  0  0  0  0
    1.6880   -0.7340    0.4950 C   0  0  0  0  0  0  0  0  0  0  0  0
    1.0050   -0.8890   -0.6940 C   0  0  0  0  0  0  0  0  0  0  0  0
    2.3120    0.5730    0.8420 C   0  0  2  0  0  0  0  0  0  0  0  0
    3.7080    0.5490    0.2070 C   0  0  0  0  0  0  0  0  0  0  0  0
    4.3410    1.7350    0.4920 O   0  0  0  0  0  0  0  0  0  0  0  0
    5.6050    1.7840   -0.0500 C   0  0  2  0  0  0  0  0  0  0  0  0
    6.6850    1.9420    0.9840 C   0  0  0  0  0  0  0  0  0  0  0  0
    5.6690    2.8770   -1.0970 C   0  0  0  0  0  0  0  0  0  0  0  0
    2.4220    0.7780    2.3360 C   0  0  0  0  0  0  0  0  0  0  0  0
    3.0530   -0.3890    2.8560 O   0  0  0  0  0  0  0  0  0  0  0  0
    2.5040   -1.6440    2.6090 C   0  0  0  0  0  0  0  0  0  0  0  0
    2.5880   -2.6140    3.3800 O   0  0  0  0  0  0  0  0  0  0  0  0
   -2.7600    0.7230   -1.9860 C   0  0  0  0  0  0  0  0  0  0  0  0
   -3.8670    1.1580   -1.2870 C   0  0  0  0  0  0  0  0  0  0  0  0
  1  2  1  0
  2  3  1  0
  3  4  1  0
  3  5  1  0
  5  6  2  0
  5 29  1  0
  6  7  1  0
  7  8  2  0
  8  9  1  0
  8 28  1  0
  9 10  1  0
 10 11  1  1
 10 12  1  0
 12 13  2  0
 12 17  1  0
 13 14  1  0
 14 15  2  0
 15 16  1  0
 15 26  1  0
 16 17  2  0
 16 18  1  0
 18 19  1  6
 18 24  1  0
 19 20  1  0
 20 21  1  0
 21 22  1  1
 21 23  1  0
 24 25  1  0
 25 26  1  0
 26 27  2  0
 28 29  2  0
M  END
