
     RDKit          3D

 29 31  0  0  0  0  0  0  0  0999 V2000
    6.0270   -0.0720   -1.7480 C   0  0  0  0  0  0  0  0  0  0  0  0
    6.9300    0.5760   -0.6750 C   0  0  2  0  0  0  0  0  0  0  0  0
    8.3700    0.2610   -1.0870 C   0  0  0  0  0  0  0  0  0  0  0  0
    6.6230    0.0790    0.6010 N   0  0  0  0  0  0  0  0  0  0  0  0
    5.4530    0.3870    1.2860 C   0  0  0  0  0  0  0  0  0  0  0  0
    4.1360   -0.0470    0.7410 C   0  0  0  0  0  0  0  0  0  0  0  0
    3.0140    0.0820    1.7960 C   0  0  0  0  0  0  0  0  0  0  0  0
    1.7100   -0.2060    1.1070 C   0  0  2  0  0  0  0  0  0  0  0  0
    1.5010    0.8770    0.1270 C   0  0  0  0  0  0  0  0  0  0  0  0
    0.2760    1.6140    0.4540 O   0  0  0  0  0  0  0  0  0  0  0  0
   -0.9660    1.0840    0.2200 C   0  0  0  0  0  0  0  0  0  0  0  0
   -1.8230    1.8930   -0.4610 C   0  0  0  0  0  0  0  0  0  0  0  0
   -3.0490    1.4170   -0.7120 C   0  0  0  0  0  0  0  0  0  0  0  0
   -3.5110    0.1090   -0.3110 C   0  0  0  0  0  0  0  0  0  0  0  0
   -4.8950   -0.1360   -0.8300 C   0  0  0  0  0  0  0  0  0  0  0  0
   -5.1030    0.4410   -2.1090 C   0  0  0  0  0  0  0  0  0  0  0  0
   -6.3340    0.6480   -2.6540 C   0  0  0  0  0  0  0  0  0  0  0  0
   -7.4420    0.2630   -1.9410 C   0  0  0  0  0  0  0  0  0  0  0  0
   -9.1250    0.5200   -2.5860 P   0  0  0  0  0  0  0  0  0  0  0  0
   -9.7930    1.9360   -2.5870 O   0  0  0  0  0  0  0  0  0  0  0  0
   -7.2610   -0.3260   -0.6870 C   0  0  0  0  0  0  0  0  0  0  0  0
   -8.5510   -0.5140    0.0660 C   0  0  0  0  0  0  0  0  0  0  0  0
   -8.7580   -1.8840    0.2950 O   0  0  0  0  0  0  0  0  0  0  0  0
   -5.9850   -0.5170   -0.1420 C   0  0  0  0  0  0  0  0  0  0  0  0
   -2.6780   -0.6420    0.3380 C   0  0  0  0  0  0  0  0  0  0  0  0
   -1.3740   -0.1950    0.6370 C   0  0  0  0  0  0  0  0  0  0  0  0
   -0.5720   -1.0910    1.3560 O   0  0  0  0  0  0  0  0  0  0  0  0
    0.6520   -0.6490    2.0190 C   0  0  1  0  0  0  0  0  0  0  0  0
    1.1870   -1.7540    2.8520 C   0  0  0  0  0  0  0  0  0  0  0  0
  2  1  1  6
  2  3  1  0
  2  4  1  0
  4  5  1  0
  5  6  1  0
  6  7  1  0
  8  7  1  1
  8  9  1  0
  8 28  1  0
  9 10  1  0
 10 11  1  0
 11 12  2  0
 11 26  1  0
 12 13  1  0
 13 14  2  0
 14 15  1  0
 14 25  1  0
 15 16  2  0
 15 24  1  0
 16 17  1  0
 17 18  2  0
 18 19  1  0
 18 21  1  0
 19 20  2  0
 21 22  1  0
 21 24  2  0
 22 23  1  0
 25 26  2  0
 26 27  1  0
 27 28  1  0
 28 29  1  6
M  END
