
     RDKit          3D

 30 32  0  0  0  0  0  0  0  0999 V2000
    5.1080    2.0400    0.7510 C   0  0  0  0  0  0  0  0  0  0  0  0
    4.1990    0.8400    0.4440 C   0  0  0  0  0  0  0  0  0  0  0  0
    4.0630    0.7860   -0.9160 O   0  0  0  0  0  0  0  0  0  0  0  0
    3.1090   -0.4590   -1.5530 P   0  0  0  0  0  0  0  0  0  0  0  0
    3.8610   -1.9510   -1.8230 O   0  0  0  0  0  0  0  0  0  0  0  0
    4.1840   -2.6950   -0.7220 C   0  0  0  0  0  0  0  0  0  0  0  0
    4.8520   -3.9800   -1.2270 C   0  0  0  0  0  0  0  0  0  0  0  0
    1.3910   -0.5660   -0.8640 C   0  0  1  0  0  0  0  0  0  0  0  0
    1.3830   -1.1150    0.4090 O   0  0  0  0  0  0  0  0  0  0  0  0
    0.6900    0.7220   -0.9270 C   0  0  0  0  0  0  0  0  0  0  0  0
   -0.6930    0.8260   -0.6370 N   0  0  0  0  0  0  0  0  0  0  0  0
   -1.1310    2.1690   -0.5920 C   0  0  1  0  0  0  0  0  0  0  0  0
   -2.2870    2.5730   -1.4410 C   0  0  0  0  0  0  0  0  0  0  0  0
   -2.0330    2.3460   -2.9210 C   0  0  0  0  0  0  0  0  0  0  0  0
   -1.2300    2.8230    0.7470 C   0  0  0  0  0  0  0  0  0  0  0  0
   -0.6180    2.1620    1.8090 O   0  0  0  0  0  0  0  0  0  0  0  0
   -0.8340    0.8720    2.2600 C   0  0  0  0  0  0  0  0  0  0  0  0
   -0.7030    0.7460    3.6460 C   0  0  0  0  0  0  0  0  0  0  0  0
   -0.8860   -0.4680    4.2540 C   0  0  0  0  0  0  0  0  0  0  0  0
   -1.2050   -1.5720    3.4610 C   0  0  0  0  0  0  0  0  0  0  0  0
   -1.3360   -1.4540    2.0800 C   0  0  0  0  0  0  0  0  0  0  0  0
   -1.1500   -0.2380    1.4950 C   0  0  0  0  0  0  0  0  0  0  0  0
   -1.3160   -0.2200   -0.0020 C   0  0  1  0  0  0  0  0  0  0  0  0
   -2.6450   -0.6970   -0.4030 C   0  0  0  0  0  0  0  0  0  0  0  0
   -2.8340   -1.6710   -1.3730 C   0  0  0  0  0  0  0  0  0  0  0  0
   -4.0730   -2.1100   -1.7790 C   0  0  0  0  0  0  0  0  0  0  0  0
   -5.1900   -1.5620   -1.2000 C   0  0  0  0  0  0  0  0  0  0  0  0
   -5.0330   -0.5980   -0.2370 C   0  0  0  0  0  0  0  0  0  0  0  0
   -3.7820   -0.1780    0.1510 C   0  0  0  0  0  0  0  0  0  0  0  0
   -3.7150    0.7960    1.1310 O   0  0  0  0  0  0  0  0  0  0  0  0
  1  2  1  0
  2  3  1  0
  3  4  1  0
  4  5  1  0
  4  8  1  0
  5  6  1  0
  6  7  1  0
  8  9  1  1
  8 10  1  0
 10 11  1  0
 11 12  1  0
 11 23  1  0
 12 13  1  1
 12 15  1  0
 13 14  1  0
 15 16  1  0
 16 17  1  0
 17 18  2  0
 17 22  1  0
 18 19  1  0
 19 20  2  0
 20 21  1  0
 21 22  2  0
 22 23  1  0
 23 24  1  1
 24 25  2  0
 24 29  1  0
 25 26  1  0
 26 27  2  0
 27 28  1  0
 28 29  2  0
 29 30  1  0
M  END
