
     RDKit          3D

 29 31  0  0  0  0  0  0  0  0999 V2000
    4.6500    0.0290    2.3220 C   0  0  0  0  0  0  0  0  0  0  0  0
    5.1270   -0.7070    1.1020 C   0  0  0  0  0  0  0  0  0  0  0  0
    4.6340   -0.0240   -0.1570 C   0  0  1  0  0  0  0  0  0  0  0  0
    5.1090   -0.7570   -1.3800 C   0  0  0  0  0  0  0  0  0  0  0  0
    3.1460   -0.0400   -0.1470 C   0  0  0  0  0  0  0  0  0  0  0  0
    2.4520   -1.2200   -0.1160 C   0  0  0  0  0  0  0  0  0  0  0  0
    1.0840   -1.2200   -0.1080 C   0  0  0  0  0  0  0  0  0  0  0  0
    0.3660   -0.0200   -0.1310 C   0  0  0  0  0  0  0  0  0  0  0  0
    1.0800    1.1360   -0.1600 C   0  0  0  0  0  0  0  0  0  0  0  0
    2.4760    1.1460   -0.1700 C   0  0  0  0  0  0  0  0  0  0  0  0
    0.3420    2.4160   -0.1530 C   0  0  0  0  0  0  0  0  0  0  0  0
    0.9810    3.4840   -0.1840 O   0  0  0  0  0  0  0  0  0  0  0  0
   -1.0820    2.4040   -0.1130 N   0  0  0  0  0  0  0  0  0  0  0  0
   -1.8730    3.5100   -0.5360 C   0  0  0  0  0  0  0  0  0  0  0  0
   -2.2340    3.4580   -2.0050 C   0  0  0  0  0  0  0  0  0  0  0  0
   -3.0650    4.6950   -2.2900 C   0  0  0  0  0  0  0  0  0  0  0  0
   -3.5750    4.7610   -4.0540 P   0  0  0  0  0  0  0  0  0  0  0  0
   -4.4240    5.9640   -4.5370 O   0  0  0  0  0  0  0  0  0  0  0  0
   -1.7200    1.2060    0.3830 C   0  0  0  0  0  0  0  0  0  0  0  0
   -1.1060   -0.0290   -0.1510 C   0  0  1  0  0  0  0  0  0  0  0  0
   -1.4820   -0.1330   -1.5160 O   0  0  0  0  0  0  0  0  0  0  0  0
   -1.6650   -1.2100    0.5520 C   0  0  0  0  0  0  0  0  0  0  0  0
   -1.5160   -1.4110    1.9090 C   0  0  0  0  0  0  0  0  0  0  0  0
   -2.0290   -2.5060    2.5650 C   0  0  0  0  0  0  0  0  0  0  0  0
   -2.7330   -3.4650    1.8460 C   0  0  0  0  0  0  0  0  0  0  0  0
   -2.8960   -3.2900    0.4950 C   0  0  0  0  0  0  0  0  0  0  0  0
   -3.5900   -4.2280   -0.2430 O   0  0  0  0  0  0  0  0  0  0  0  0
   -4.1550   -5.3810    0.3170 C   0  0  0  0  0  0  0  0  0  0  0  0
   -2.3650   -2.1730   -0.1400 C   0  0  0  0  0  0  0  0  0  0  0  0
  1  2  1  0
  2  3  1  0
  3  4  1  6
  3  5  1  0
  5  6  2  0
  5 10  1  0
  6  7  1  0
  7  8  2  0
  8  9  1  0
  8 20  1  0
  9 10  2  0
  9 11  1  0
 11 12  2  0
 11 13  1  0
 13 14  1  0
 13 19  1  0
 14 15  1  0
 15 16  1  0
 16 17  1  0
 17 18  2  0
 19 20  1  0
 20 21  1  6
 20 22  1  0
 22 23  2  0
 22 29  1  0
 23 24  1  0
 24 25  2  0
 25 26  1  0
 26 27  1  0
 26 29  2  0
 27 28  1  0
M  END
