
     RDKit          3D

 27 29  0  0  0  0  0  0  0  0999 V2000
    7.3570   -0.0910   -2.3500 N   0  0  0  0  0  0  0  0  0  0  0  0
    7.0330   -0.9180   -1.1800 C   0  0  0  0  0  0  0  0  0  0  0  0
    5.9070   -0.2500   -0.4860 C   0  0  0  0  0  0  0  0  0  0  0  0
    4.7170   -0.7860   -0.2680 C   0  0  0  0  0  0  0  0  0  0  0  0
    3.8510    0.1690    0.4500 C   0  0  2  0  0  0  0  0  0  0  0  0
    2.4870    0.2950   -0.1910 C   0  0  0  0  0  0  0  0  0  0  0  0
    1.6230    1.2480    0.5250 C   0  0  0  0  0  0  0  0  0  0  0  0
    1.8840    2.4690    0.3770 O   0  0  0  0  0  0  0  0  0  0  0  0
    0.5330    0.8930    1.3580 N   0  0  0  0  0  0  0  0  0  0  0  0
   -0.2360    1.9300    2.0090 C   0  0  0  0  0  0  0  0  0  0  0  0
   -1.7220    1.8110    1.7870 C   0  0  0  0  0  0  0  0  0  0  0  0
   -2.1040    0.4160    1.3420 C   0  0  2  0  0  0  0  0  0  0  0  0
   -3.4770    0.1030    1.5520 N   0  0  0  0  0  0  0  0  0  0  0  0
   -4.3030   -0.2510    0.4610 C   0  0  0  0  0  0  0  0  0  0  0  0
   -3.7840   -0.2800   -0.7030 O   0  0  0  0  0  0  0  0  0  0  0  0
   -5.7510   -0.5850    0.6560 C   0  0  0  0  0  0  0  0  0  0  0  0
   -6.3580   -0.9090   -0.6500 C   0  0  0  0  0  0  0  0  0  0  0  0
   -6.3630   -2.2010   -1.1310 C   0  0  0  0  0  0  0  0  0  0  0  0
   -6.9310   -2.4720   -2.3410 C   0  0  0  0  0  0  0  0  0  0  0  0
   -7.4980   -1.4580   -3.0840 C   0  0  0  0  0  0  0  0  0  0  0  0
   -8.2400   -1.7580   -4.6460 Cl  0  0  0  0  0  0  0  0  0  0  0  0
   -7.4760   -0.1660   -2.5690 C   0  0  0  0  0  0  0  0  0  0  0  0
   -6.9110    0.0840   -1.3730 N   0  0  0  0  0  0  0  0  0  0  0  0
   -1.2610   -0.5380    2.1430 C   0  0  0  0  0  0  0  0  0  0  0  0
    0.1470   -0.4860    1.5930 C   0  0  0  0  0  0  0  0  0  0  0  0
    4.5470    1.5110    0.3560 C   0  0  0  0  0  0  0  0  0  0  0  0
    5.9860    1.1390    0.0630 C   0  0  0  0  0  0  0  0  0  0  0  0
  1  2  1  0
  2  3  1  0
  3  4  2  0
  3 27  1  0
  4  5  1  0
  5  6  1  6
  5 26  1  0
  6  7  1  0
  7  8  2  0
  7  9  1  0
  9 10  1  0
  9 25  1  0
 10 11  1  0
 11 12  1  0
 12 13  1  1
 12 24  1  0
 13 14  1  0
 14 15  2  0
 14 16  1  0
 16 17  1  0
 17 18  2  0
 17 23  1  0
 18 19  1  0
 19 20  2  0
 20 21  1  0
 20 22  1  0
 22 23  2  0
 24 25  1  0
 26 27  1  0
M  CHG  1   1   1
M  END
