
     RDKit          3D

 22 23  0  0  0  0  0  0  0  0999 V2000
   -4.6530    0.7500   -0.0320 C   0  0  0  0  0  0  0  0  0  0  0  0
   -3.2790    0.7770   -0.7070 C   0  0  1  0  0  0  0  0  0  0  0  0
   -2.8290    2.2200   -0.6990 C   0  0  0  0  0  0  0  0  0  0  0  0
   -2.4120    0.0540    0.1050 O   0  0  0  0  0  0  0  0  0  0  0  0
   -1.8660   -1.0440   -0.5900 C   0  0  2  0  0  0  0  0  0  0  0  0
   -2.2580   -2.2790    0.1900 C   0  0  0  0  0  0  0  0  0  0  0  0
   -1.4000   -2.4200    1.3030 O   0  0  0  0  0  0  0  0  0  0  0  0
   -0.6330   -1.3910    1.7750 C   0  0  0  0  0  0  0  0  0  0  0  0
   -0.4430   -1.1500    3.0040 O   0  0  0  0  0  0  0  0  0  0  0  0
    0.0420   -0.4670    0.8150 C   0  0  1  0  0  0  0  0  0  0  0  0
   -0.5010    0.7910    1.0510 O   0  0  0  0  0  0  0  0  0  0  0  0
    1.5070   -0.5390    1.1010 C   0  0  2  0  0  0  0  0  0  0  0  0
    1.9370   -1.9850    1.0020 C   0  0  0  0  0  0  0  0  0  0  0  0
    1.6470   -0.2070    2.4720 O   0  0  0  0  0  0  0  0  0  0  0  0
    2.3580    0.2870    0.2760 C   0  0  0  0  0  0  0  0  0  0  0  0
    3.3050   -0.2370   -0.4740 C   0  0  0  0  0  0  0  0  0  0  0  0
    4.2040    0.5730   -1.3380 C   0  0  2  0  0  0  0  0  0  0  0  0
    5.5070    0.3680   -0.8250 O   0  0  0  0  0  0  0  0  0  0  0  0
    3.9730    1.9470   -1.2980 O   0  0  0  0  0  0  0  0  0  0  0  0
    2.9910    2.5000   -0.5220 C   0  0  0  0  0  0  0  0  0  0  0  0
    2.2220    1.7380    0.2240 C   0  0  0  0  0  0  0  0  0  0  0  0
   -0.3590   -0.9050   -0.5630 C   0  0  0  0  0  0  0  0  0  0  0  0
  2  1  1  1
  2  3  1  0
  2  4  1  0
  5  4  1  1
  5  6  1  0
  5 22  1  0
  6  7  1  0
  7  8  1  0
  8  9  2  0
  8 10  1  0
 10 11  1  1
 10 12  1  0
 10 22  1  0
 12 13  1  1
 12 14  1  0
 12 15  1  0
 15 16  2  0
 15 21  1  0
 16 17  1  0
 17 18  1  1
 17 19  1  0
 19 20  1  0
 20 21  2  0
M  END
