
     RDKit          3D

 27 29  0  0  0  0  0  0  0  0999 V2000
   -6.1730   -2.3850    0.1330 C   0  0  0  0  0  0  0  0  0  0  0  0
   -4.7360   -2.7550    0.2920 C   0  0  0  0  0  0  0  0  0  0  0  0
   -3.8270   -1.7370   -0.0380 O   0  0  0  0  0  0  0  0  0  0  0  0
   -3.7800   -0.5060    0.5950 C   0  0  0  0  0  0  0  0  0  0  0  0
   -4.6710   -0.2380    1.6180 C   0  0  0  0  0  0  0  0  0  0  0  0
   -4.6340    0.9890    2.2590 C   0  0  0  0  0  0  0  0  0  0  0  0
   -3.7180    1.9110    1.8650 C   0  0  0  0  0  0  0  0  0  0  0  0
   -3.6460    3.4800    2.6570 Cl  0  0  0  0  0  0  0  0  0  0  0  0
   -2.8380    1.6180    0.8390 C   0  0  0  0  0  0  0  0  0  0  0  0
   -2.8430    0.4120    0.1800 C   0  0  0  0  0  0  0  0  0  0  0  0
   -1.9500    0.0650   -0.9270 C   0  0  1  0  0  0  0  0  0  0  0  0
   -2.7100    0.1630   -2.1900 N   0  0  0  0  0  0  0  0  0  0  0  0
   -0.7460    0.9650   -1.0790 C   0  0  1  0  0  0  0  0  0  0  0  0
    0.1340    0.9210    0.1760 C   0  0  0  0  0  0  0  0  0  0  0  0
    1.4940    0.8340   -0.3050 N   0  0  0  0  0  0  0  0  0  0  0  0
    2.3990    1.8760   -0.0790 C   0  0  0  0  0  0  0  0  0  0  0  0
    3.5880    1.7130    0.4590 C   0  0  0  0  0  0  0  0  0  0  0  0
    4.0330    0.4160    0.8540 N   0  0  0  0  0  0  0  0  0  0  0  0
    5.4060    0.0680    0.7140 C   0  0  0  0  0  0  0  0  0  0  0  0
    6.3630    0.9240    0.2100 C   0  0  0  0  0  0  0  0  0  0  0  0
    7.6780    0.5400    0.0990 C   0  0  0  0  0  0  0  0  0  0  0  0
    8.0680   -0.7190    0.4920 C   0  0  0  0  0  0  0  0  0  0  0  0
    7.1270   -1.5470    0.9820 N   0  0  0  0  0  0  0  0  0  0  0  0
    5.8360   -1.1890    1.0980 C   0  0  0  0  0  0  0  0  0  0  0  0
    1.8780   -0.3450   -1.0290 C   0  0  0  0  0  0  0  0  0  0  0  0
    0.7400   -0.5540   -2.0530 C   0  0  0  0  0  0  0  0  0  0  0  0
   -0.0120    0.5780   -2.1930 O   0  0  0  0  0  0  0  0  0  0  0  0
  1  2  1  0
  2  3  1  0
  3  4  1  0
  4  5  2  0
  4 10  1  0
  5  6  1  0
  6  7  2  0
  7  8  1  0
  7  9  1  0
  9 10  2  0
 10 11  1  0
 11 12  1  6
 11 13  1  0
 13 14  1  1
 13 27  1  0
 14 15  1  0
 15 16  1  0
 15 25  1  0
 16 17  2  3
 17 18  1  0
 18 19  1  0
 19 20  2  0
 19 24  1  0
 20 21  1  0
 21 22  2  0
 22 23  1  0
 23 24  2  0
 25 26  1  0
 26 27  1  0
M  CHG  1  12   1
M  END
