
     RDKit          3D

 22 23  0  0  0  0  0  0  0  0999 V2000
   -4.4210   -1.8310   -1.8900 O   0  0  0  0  0  0  0  0  0  0  0  0
   -3.6440   -1.9570   -0.9300 C   0  0  0  0  0  0  0  0  0  0  0  0
   -4.0210   -2.6630    0.1890 O   0  0  0  0  0  0  0  0  0  0  0  0
   -2.2960   -1.3430   -0.9870 C   0  0  1  0  0  0  0  0  0  0  0  0
   -2.1840   -0.6970   -2.2200 O   0  0  0  0  0  0  0  0  0  0  0  0
   -2.1920   -0.4230    0.1710 C   0  0  0  0  0  0  0  0  0  0  0  0
   -0.8790    0.3200    0.3190 C   0  0  2  0  0  0  0  0  0  0  0  0
   -1.0730    1.1750    1.5580 C   0  0  0  0  0  0  0  0  0  0  0  0
   -2.1840    2.1470    1.5060 C   0  0  0  0  0  0  0  0  0  0  0  0
   -2.0460    3.0710    0.4830 O   0  0  0  0  0  0  0  0  0  0  0  0
   -0.6210    1.1840   -0.8520 C   0  0  0  0  0  0  0  0  0  0  0  0
    0.4580    2.1880   -0.6590 C   0  0  0  0  0  0  0  0  0  0  0  0
    1.7660    1.5600   -1.1080 C   0  0  0  0  0  0  0  0  0  0  0  0
    1.6090    0.2080   -1.1830 O   0  0  0  0  0  0  0  0  0  0  0  0
    1.5190   -0.4970   -0.0280 C   0  0  1  0  0  0  0  0  0  0  0  0
    2.1370   -1.8750   -0.3710 C   0  0  0  0  0  0  0  0  0  0  0  0
    3.3960   -1.5770   -1.1610 C   0  0  0  0  0  0  0  0  0  0  0  0
    4.0140   -0.4160   -0.7560 O   0  0  0  0  0  0  0  0  0  0  0  0
    3.9360   -0.1780    0.5950 C   0  0  0  0  0  0  0  0  0  0  0  0
    2.5230    0.0810    0.9840 C   0  0  0  0  0  0  0  0  0  0  0  0
    0.2210   -0.6330    0.6450 C   0  0  1  0  0  0  0  0  0  0  0  0
    0.4240   -0.6750    2.0470 O   0  0  0  0  0  0  0  0  0  0  0  0
  1  2  2  0
  2  3  1  0
  2  4  1  0
  4  5  1  6
  4  6  1  0
  7  6  1  6
  7  8  1  0
  7 11  1  0
  7 21  1  0
  8  9  1  0
  9 10  1  0
 11 12  1  0
 12 13  1  0
 13 14  1  0
 14 15  1  0
 15 16  1  6
 15 20  1  0
 15 21  1  0
 16 17  1  0
 17 18  1  0
 18 19  1  0
 19 20  1  0
 21 22  1  1
M  END
