
     RDKit          3D

 13 12  0  0  0  0  0  0  0  0999 V2000
    5.7430    1.0370   -0.2900 C   0  0  0  0  0  0  0  0  0  0  0  0
    4.3730    0.9780   -0.2280 O   0  0  0  0  0  0  0  0  0  0  0  0
    3.8450   -0.2560   -0.5370 C   0  0  0  0  0  0  0  0  0  0  0  0
    2.3230   -0.1850   -0.4300 C   0  0  0  0  0  0  0  0  0  0  0  0
    1.9470    0.1800    0.9160 N   0  0  0  0  0  0  0  0  0  0  0  0
    0.4720    0.2260    0.9980 C   0  0  1  0  0  0  0  0  0  0  0  0
    0.0260    1.2200    0.0220 N   0  0  0  0  0  0  0  0  0  0  0  0
   -0.0640   -1.0660    0.7340 N   0  0  0  0  0  0  0  0  0  0  0  0
   -1.4580   -1.2100    0.9100 C   0  0  0  0  0  0  0  0  0  0  0  0
   -2.3260   -0.4780   -0.0780 C   0  0  0  0  0  0  0  0  0  0  0  0
   -3.7600   -0.8100    0.3100 C   0  0  0  0  0  0  0  0  0  0  0  0
   -4.7540   -0.1420   -0.5940 C   0  0  0  0  0  0  0  0  0  0  0  0
   -4.5690    1.3120   -0.5070 N   0  0  0  0  0  0  0  0  0  0  0  0
  1  2  1  0
  2  3  1  0
  3  4  1  0
  4  5  1  0
  5  6  1  0
  6  7  1  6
  6  8  1  0
  8  9  1  0
  9 10  1  0
 10 11  1  0
 11 12  1  0
 12 13  1  0
M  END
