
     RDKit          3D

 22 23  0  0  0  0  0  0  0  0999 V2000
    5.1800    1.8680    0.1580 C   0  0  0  0  0  0  0  0  0  0  0  0
    4.6410    1.1370    1.1700 O   0  0  0  0  0  0  0  0  0  0  0  0
    4.3290   -0.1330    0.8220 C   0  0  0  0  0  0  0  0  0  0  0  0
    3.3400   -0.3680   -0.2520 C   0  0  1  0  0  0  0  0  0  0  0  0
    3.6650    0.1150   -1.4890 O   0  0  0  0  0  0  0  0  0  0  0  0
    3.2110   -1.8960   -0.3890 C   0  0  0  0  0  0  0  0  0  0  0  0
    2.8820   -2.3950    0.8570 O   0  0  0  0  0  0  0  0  0  0  0  0
    1.9490    0.1260    0.0870 C   0  0  0  0  0  0  0  0  0  0  0  0
    1.0100   -0.3170   -0.8430 O   0  0  0  0  0  0  0  0  0  0  0  0
   -0.2720    0.1340   -0.5370 C   0  0  1  0  0  0  0  0  0  0  0  0
   -0.7580    1.0260   -1.6180 C   0  0  0  0  0  0  0  0  0  0  0  0
   -2.2370    1.0060   -1.8460 C   0  0  0  0  0  0  0  0  0  0  0  0
   -3.0260    0.4940   -0.6830 C   0  0  0  0  0  0  0  0  0  0  0  0
   -2.5420   -0.4390    0.0770 C   0  0  0  0  0  0  0  0  0  0  0  0
   -3.2660   -0.9610    1.2060 C   0  0  0  0  0  0  0  0  0  0  0  0
   -2.7310   -1.9620    2.0100 O   0  0  0  0  0  0  0  0  0  0  0  0
   -4.4570   -0.4550    1.4520 C   0  0  0  0  0  0  0  0  0  0  0  0
   -5.1100    0.6040    0.6630 C   0  0  0  0  0  0  0  0  0  0  0  0
   -4.3480    1.1150   -0.4960 C   0  0  2  0  0  0  0  0  0  0  0  0
   -5.1070    0.9170   -1.6930 O   0  0  0  0  0  0  0  0  0  0  0  0
   -1.1990   -1.0030   -0.2140 C   0  0  2  0  0  0  0  0  0  0  0  0
   -0.6930   -1.6550    0.9110 O   0  0  0  0  0  0  0  0  0  0  0  0
  1  2  1  0
  2  3  1  0
  3  4  1  0
  4  5  1  6
  4  6  1  0
  4  8  1  0
  6  7  1  0
  8  9  1  0
 10  9  1  6
 10 11  1  0
 10 21  1  0
 11 12  1  0
 12 13  1  0
 13 14  2  0
 13 19  1  0
 14 15  1  0
 14 21  1  0
 15 16  1  0
 15 17  2  0
 17 18  1  0
 18 19  1  0
 19 20  1  6
 21 22  1  1
M  END
