
     RDKit          3D

 22 23  0  0  0  0  0  0  0  0999 V2000
   -5.2210   -0.1770    0.4070 C   0  0  0  0  0  0  0  0  0  0  0  0
   -3.7840   -0.4590    0.7100 C   0  0  2  0  0  0  0  0  0  0  0  0
   -3.5190   -1.9360    0.4020 C   0  0  0  0  0  0  0  0  0  0  0  0
   -3.4510   -0.2430    2.0430 O   0  0  0  0  0  0  0  0  0  0  0  0
   -2.8300    0.3250   -0.1600 C   0  0  1  0  0  0  0  0  0  0  0  0
   -2.9040    1.8040    0.0940 C   0  0  0  0  0  0  0  0  0  0  0  0
   -1.7910    2.5070   -0.6160 C   0  0  0  0  0  0  0  0  0  0  0  0
   -0.4420    1.8450   -0.3580 C   0  0  0  0  0  0  0  0  0  0  0  0
   -0.5890    0.3950   -0.7160 C   0  0  1  0  0  0  0  0  0  0  0  0
    0.6780   -0.3830   -0.6010 C   0  0  1  0  0  0  0  0  0  0  0  0
    1.6300    0.1610   -1.4390 O   0  0  0  0  0  0  0  0  0  0  0  0
    1.1920   -0.4530    0.8210 C   0  0  0  0  0  0  0  0  0  0  0  0
    2.3470   -1.2420    0.9270 O   0  0  0  0  0  0  0  0  0  0  0  0
    3.5270   -0.9430    0.2310 C   0  0  0  0  0  0  0  0  0  0  0  0
    4.0230    0.2620    0.2480 C   0  0  0  0  0  0  0  0  0  0  0  0
    5.2610    0.6040   -0.4750 C   0  0  1  0  0  0  0  0  0  0  0  0
    6.2260    1.1040    0.4150 O   0  0  0  0  0  0  0  0  0  0  0  0
    5.8080   -0.4910   -1.1500 O   0  0  0  0  0  0  0  0  0  0  0  0
    5.2820   -1.7580   -1.1650 C   0  0  0  0  0  0  0  0  0  0  0  0
    4.1790   -2.0060   -0.5050 C   0  0  0  0  0  0  0  0  0  0  0  0
    3.6510   -3.3120   -0.5300 O   0  0  0  0  0  0  0  0  0  0  0  0
   -1.5500   -0.1530    0.1290 O   0  0  0  0  0  0  0  0  0  0  0  0
  2  1  1  1
  2  3  1  0
  2  4  1  0
  2  5  1  0
  5  6  1  1
  5 22  1  0
  6  7  1  0
  7  8  1  0
  9  8  1  1
  9 10  1  0
  9 22  1  0
 10 11  1  6
 10 12  1  0
 12 13  1  0
 13 14  1  0
 14 15  2  0
 14 20  1  0
 15 16  1  0
 16 17  1  1
 16 18  1  0
 18 19  1  0
 19 20  2  0
 20 21  1  0
M  END
