
     RDKit          3D

 22 23  0  0  0  0  0  0  0  0999 V2000
    6.0930   -0.2790   -0.9530 O   0  0  0  0  0  0  0  0  0  0  0  0
    6.3720    1.0340   -0.7060 C   0  0  0  0  0  0  0  0  0  0  0  0
    5.2190    1.9600   -0.5780 C   0  0  0  0  0  0  0  0  0  0  0  0
    4.3130    1.7240    0.3980 O   0  0  0  0  0  0  0  0  0  0  0  0
    3.5980    0.5760    0.3980 C   0  0  1  0  0  0  0  0  0  0  0  0
    3.8580   -0.2510    1.4970 O   0  0  0  0  0  0  0  0  0  0  0  0
    2.1330    0.7520    0.3500 C   0  0  0  0  0  0  0  0  0  0  0  0
    1.5850    1.4130   -0.7340 O   0  0  0  0  0  0  0  0  0  0  0  0
    1.3140    0.3160    1.2790 C   0  0  0  0  0  0  0  0  0  0  0  0
   -0.1450    0.5140    1.1900 C   0  0  2  0  0  0  0  0  0  0  0  0
   -0.5920    0.9910    2.4210 O   0  0  0  0  0  0  0  0  0  0  0  0
   -0.8310   -0.7950    0.8540 C   0  0  2  0  0  0  0  0  0  0  0  0
   -0.3560   -1.3510   -0.4660 C   0  0  0  0  0  0  0  0  0  0  0  0
   -1.3490   -2.4380   -0.8470 C   0  0  0  0  0  0  0  0  0  0  0  0
   -2.5980   -1.9610   -1.1020 O   0  0  0  0  0  0  0  0  0  0  0  0
   -3.0790   -0.9920   -0.2700 C   0  0  1  0  0  0  0  0  0  0  0  0
   -3.1650    0.3000   -1.0660 C   0  0  0  0  0  0  0  0  0  0  0  0
   -4.1510    1.2680   -0.5050 C   0  0  0  0  0  0  0  0  0  0  0  0
   -5.4030    0.6590   -0.4310 O   0  0  0  0  0  0  0  0  0  0  0  0
   -5.3120   -0.2790    0.6170 C   0  0  0  0  0  0  0  0  0  0  0  0
   -4.4870   -1.4450    0.1480 C   0  0  0  0  0  0  0  0  0  0  0  0
   -2.3130   -0.7350    0.9680 C   0  0  0  0  0  0  0  0  0  0  0  0
  1  2  1  0
  2  3  1  0
  3  4  1  0
  4  5  1  0
  5  6  1  1
  5  7  1  0
  7  8  1  0
  7  9  2  3
  9 10  1  0
 10 11  1  1
 10 12  1  0
 12 13  1  6
 12 22  1  0
 13 14  1  0
 14 15  1  0
 15 16  1  0
 16 17  1  6
 16 21  1  0
 16 22  1  0
 17 18  1  0
 18 19  1  0
 19 20  1  0
 20 21  1  0
M  END
