
     RDKit          3D

 27 29  0  0  0  0  0  0  0  0999 V2000
   -7.3260    0.5970    1.4510 C   0  0  0  0  0  0  0  0  0  0  0  0
   -6.1670    0.3750    0.8670 C   0  0  0  0  0  0  0  0  0  0  0  0
   -6.0740    0.4000   -0.5310 C   0  0  0  0  0  0  0  0  0  0  0  0
   -4.8910    0.1550   -1.1840 C   0  0  0  0  0  0  0  0  0  0  0  0
   -3.7980   -0.1160   -0.3910 C   0  0  0  0  0  0  0  0  0  0  0  0
   -3.8610   -0.1460    0.9710 C   0  0  0  0  0  0  0  0  0  0  0  0
   -5.0590    0.1020    1.6340 C   0  0  0  0  0  0  0  0  0  0  0  0
   -5.0560    0.0670    2.9640 C   0  0  0  0  0  0  0  0  0  0  0  0
   -3.5360   -0.3040    3.8080 Cl  0  0  0  0  0  0  0  0  0  0  0  0
   -2.5410   -0.3980   -1.0490 N   0  0  0  0  0  0  0  0  0  0  0  0
   -1.6040   -1.2840   -0.4370 C   0  0  0  0  0  0  0  0  0  0  0  0
   -0.3310   -0.5530   -0.0570 C   0  0  2  0  0  0  0  0  0  0  0  0
    0.6280   -1.5930    0.4610 C   0  0  0  0  0  0  0  0  0  0  0  0
    1.8660   -1.0250    0.8300 N   0  0  0  0  0  0  0  0  0  0  0  0
    2.8390   -0.9030   -0.2390 C   0  0  0  0  0  0  0  0  0  0  0  0
    4.1430   -0.5410    0.3480 C   0  0  0  0  0  0  0  0  0  0  0  0
    4.2110   -0.3920    1.6130 O   0  0  0  0  0  0  0  0  0  0  0  0
    5.3490   -0.3400   -0.3640 N   0  0  0  0  0  0  0  0  0  0  0  0
    6.6070   -0.0000    0.2970 C   0  0  0  0  0  0  0  0  0  0  0  0
    7.7250    0.1510   -0.6970 C   0  0  0  0  0  0  0  0  0  0  0  0
    8.9350    0.4620    0.0470 N   0  0  0  0  0  0  0  0  0  0  0  0
    1.7230    0.1460    1.6340 C   0  0  0  0  0  0  0  0  0  0  0  0
    0.2620    0.4610    1.9290 C   0  0  0  0  0  0  0  0  0  0  0  0
   -0.5090    0.4840    0.8020 O   0  0  0  0  0  0  0  0  0  0  0  0
   -2.3340    0.2290   -2.3270 C   0  0  0  0  0  0  0  0  0  0  0  0
   -3.4880    0.1590   -3.2570 C   0  0  0  0  0  0  0  0  0  0  0  0
   -4.8340    0.1860   -2.6440 C   0  0  0  0  0  0  0  0  0  0  0  0
  1  2  2  0
  2  3  1  0
  2  7  1  0
  3  4  2  0
  4  5  1  0
  4 27  1  0
  5  6  2  0
  5 10  1  0
  6  7  1  0
  7  8  2  3
  8  9  1  0
 10 11  1  0
 10 25  1  0
 12 11  1  1
 12 13  1  0
 12 24  1  0
 13 14  1  0
 14 15  1  0
 14 22  1  0
 15 16  1  0
 16 17  2  0
 16 18  1  0
 18 19  1  0
 19 20  1  0
 20 21  1  0
 22 23  1  0
 23 24  1  0
 25 26  1  0
 26 27  1  0
M  CHG  1  21   1
M  END
