
     RDKit          3D

 19 20  0  0  0  0  0  0  0  0999 V2000
    3.3470   -0.6770    1.1510 N   0  0  0  0  0  0  0  0  0  0  0  0
    2.7160   -0.2250   -0.0670 C   0  0  0  0  0  0  0  0  0  0  0  0
    2.4460    1.0070   -0.1320 N   0  0  0  0  0  0  0  0  0  0  0  0
    1.8680    1.7960   -1.0810 N   0  0  0  0  0  0  0  0  0  0  0  0
    0.4610    1.8920   -1.3460 C   0  0  0  0  0  0  0  0  0  0  0  0
    0.0570    1.8100   -2.5430 O   0  0  0  0  0  0  0  0  0  0  0  0
   -0.5960    2.0840   -0.3210 C   0  0  0  0  0  0  0  0  0  0  0  0
   -1.7930    1.2580   -0.5890 C   0  0  0  0  0  0  0  0  0  0  0  0
   -2.0390    0.1150    0.3350 C   0  0  2  0  0  0  0  0  0  0  0  0
   -2.5780    0.5380    1.6640 C   0  0  0  0  0  0  0  0  0  0  0  0
   -1.9430   -0.1670    2.6490 O   0  0  0  0  0  0  0  0  0  0  0  0
   -1.1120   -1.1100    2.1010 C   0  0  0  0  0  0  0  0  0  0  0  0
   -0.8020   -0.6730    0.6830 C   0  0  1  0  0  0  0  0  0  0  0  0
   -0.5960   -1.7990   -0.2010 N   0  0  0  0  0  0  0  0  0  0  0  0
    0.0120   -1.8420   -1.4530 C   0  0  0  0  0  0  0  0  0  0  0  0
   -0.7800   -2.2540   -2.4070 O   0  0  0  0  0  0  0  0  0  0  0  0
    1.3760   -1.4990   -1.8310 C   0  0  0  0  0  0  0  0  0  0  0  0
    1.5800   -1.4370   -3.1110 O   0  0  0  0  0  0  0  0  0  0  0  0
    2.4850   -1.2310   -1.0400 N   0  0  0  0  0  0  0  0  0  0  0  0
  1  2  1  0
  2  3  2  0
  2 19  1  0
  3  4  1  0
  4  5  1  0
  5  6  2  0
  5  7  1  0
  7  8  1  0
  9  8  1  6
  9 10  1  0
  9 13  1  0
 10 11  1  0
 11 12  1  0
 13 12  1  1
 13 14  1  0
 14 15  1  0
 15 16  2  0
 15 17  1  0
 17 18  2  0
 17 19  1  0
M  END
