
     RDKit          3D

 19 20  0  0  0  0  0  0  0  0999 V2000
   -4.7010    0.9680   -0.3670 C   0  0  0  0  0  0  0  0  0  0  0  0
   -3.3190    1.1490    0.1700 C   0  0  1  0  0  0  0  0  0  0  0  0
   -3.1100    0.5830    1.4090 O   0  0  0  0  0  0  0  0  0  0  0  0
   -1.9720   -0.1620    1.4100 C   0  0  1  0  0  0  0  0  0  0  0  0
   -2.2330   -1.6490    1.3500 C   0  0  0  0  0  0  0  0  0  0  0  0
   -2.9280   -2.0340    0.2190 O   0  0  0  0  0  0  0  0  0  0  0  0
   -1.1810    0.3040    0.1990 C   0  0  1  0  0  0  0  0  0  0  0  0
   -0.2550   -0.7000   -0.1940 O   0  0  0  0  0  0  0  0  0  0  0  0
    1.0490   -0.4010   -0.1250 C   0  0  0  0  0  0  0  0  0  0  0  0
    1.4040    0.7850    0.3150 O   0  0  0  0  0  0  0  0  0  0  0  0
    2.1640   -1.1200   -0.4480 N   0  0  0  0  0  0  0  0  0  0  0  0
    3.4800   -0.6600   -0.1930 C   0  0  0  0  0  0  0  0  0  0  0  0
    4.1120   -0.7700   -1.2750 N   0  0  0  0  0  0  0  0  0  0  0  0
    5.4650   -0.4300   -1.3990 C   0  0  0  0  0  0  0  0  0  0  0  0
    6.1890   -0.0100   -0.3900 C   0  0  0  0  0  0  0  0  0  0  0  0
    5.5550    0.0990    0.8810 N   0  0  0  0  0  0  0  0  0  0  0  0
    4.2020   -0.2390    0.9170 N   0  0  0  0  0  0  0  0  0  0  0  0
   -2.2710    0.5690   -0.7860 C   0  0  2  0  0  0  0  0  0  0  0  0
   -1.8770    1.5900   -1.7590 N   0  0  0  0  0  0  0  0  0  0  0  0
  2  1  1  6
  2  3  1  0
  2 18  1  0
  3  4  1  0
  4  5  1  6
  4  7  1  0
  5  6  1  0
  7  8  1  6
  7 18  1  0
  8  9  1  0
  9 10  2  0
  9 11  1  0
 11 12  1  0
 12 13  2  0
 12 17  1  0
 13 14  1  0
 14 15  2  0
 15 16  1  0
 16 17  1  0
 18 19  1  6
M  CHG  1  19   1
M  END
