
     RDKit          3D

 19 20  0  0  0  0  0  0  0  0999 V2000
   -4.0860    0.1540    1.5270 C   0  0  0  0  0  0  0  0  0  0  0  0
   -4.2170   -0.8970    0.7060 O   0  0  0  0  0  0  0  0  0  0  0  0
   -3.1950   -1.4480    0.0360 C   0  0  0  0  0  0  0  0  0  0  0  0
   -2.3960   -0.6430   -0.9330 C   0  0  2  0  0  0  0  0  0  0  0  0
   -1.4660   -1.5560   -1.5470 O   0  0  0  0  0  0  0  0  0  0  0  0
   -1.5560    0.4440   -0.2810 C   0  0  1  0  0  0  0  0  0  0  0  0
   -0.6880   -0.0920    0.7290 N   0  0  0  0  0  0  0  0  0  0  0  0
    0.6630    0.1150    0.3850 C   0  0  0  0  0  0  0  0  0  0  0  0
    1.8170   -0.2860    1.1690 C   0  0  0  0  0  0  0  0  0  0  0  0
    1.6330   -0.8780    2.2660 O   0  0  0  0  0  0  0  0  0  0  0  0
    3.1650   -0.0550    0.7850 N   0  0  0  0  0  0  0  0  0  0  0  0
    4.2630   -0.4750    1.5970 C   0  0  0  0  0  0  0  0  0  0  0  0
    5.5850   -0.2190    1.1660 N   0  0  0  0  0  0  0  0  0  0  0  0
    4.0710   -1.0630    2.6820 O   0  0  0  0  0  0  0  0  0  0  0  0
    0.6830    0.7460   -0.7940 C   0  0  0  0  0  0  0  0  0  0  0  0
    1.6130    1.3110   -1.8230 C   0  0  0  0  0  0  0  0  0  0  0  0
    0.6900    1.8560   -2.8380 C   0  0  0  0  0  0  0  0  0  0  0  0
   -0.5280    1.6600   -2.5000 N   0  0  0  0  0  0  0  0  0  0  0  0
   -0.6160    0.9890   -1.2660 N   0  0  0  0  0  0  0  0  0  0  0  0
  1  2  1  0
  2  3  1  0
  3  4  1  0
  4  5  1  1
  4  6  1  0
  6  7  1  1
  6 19  1  0
  7  8  1  0
  8  9  1  0
  8 15  2  0
  9 10  2  0
  9 11  1  0
 11 12  1  0
 12 13  1  0
 12 14  2  0
 15 16  1  0
 15 19  1  0
 16 17  1  0
 17 18  2  0
 18 19  1  0
M  END
