
     RDKit          3D

 19 20  0  0  0  0  0  0  0  0999 V2000
    6.0600   -2.2400   -1.8590 N   0  0  0  0  0  0  0  0  0  0  0  0
    4.9170   -1.6680   -1.7840 C   0  0  0  0  0  0  0  0  0  0  0  0
    3.9620   -1.8950   -0.7680 N   0  0  0  0  0  0  0  0  0  0  0  0
    2.7830   -1.0610   -1.0050 C   0  0  0  0  0  0  0  0  0  0  0  0
    1.6630   -1.1180   -0.1290 C   0  0  0  0  0  0  0  0  0  0  0  0
    1.4550   -1.7650    0.8310 O   0  0  0  0  0  0  0  0  0  0  0  0
    0.4020   -0.0300   -0.5540 N   0  0  0  0  0  0  0  0  0  0  0  0
   -0.4110   -0.3480    0.4920 C   0  0  0  0  0  0  0  0  0  0  0  0
   -0.4520   -1.0960    1.4310 O   0  0  0  0  0  0  0  0  0  0  0  0
   -1.6450    0.5400    0.4340 N   0  0  0  0  0  0  0  0  0  0  0  0
   -2.6440    0.3590    1.4040 C   0  0  2  0  0  0  0  0  0  0  0  0
   -4.0180    0.6900    0.9290 C   0  0  0  0  0  0  0  0  0  0  0  0
   -4.3880    1.9800    1.5880 C   0  0  0  0  0  0  0  0  0  0  0  0
   -3.6680    1.9410    2.8450 N   0  0  0  0  0  0  0  0  0  0  0  0
   -2.4450    1.2910    2.5720 C   0  0  0  0  0  0  0  0  0  0  0  0
   -1.3150    1.3940    3.1430 O   0  0  0  0  0  0  0  0  0  0  0  0
    3.0190   -0.3770   -2.0950 C   0  0  0  0  0  0  0  0  0  0  0  0
    4.3340   -0.6820   -2.6690 C   0  0  0  0  0  0  0  0  0  0  0  0
    4.8800   -0.2100   -3.7090 O   0  0  0  0  0  0  0  0  0  0  0  0
  1  2  2  0
  2  3  1  0
  2 18  1  0
  3  4  1  0
  4  5  1  0
  4 17  2  0
  5  6  2  0
  5  7  1  0
  7  8  1  0
  8  9  2  0
  8 10  1  0
 11 10  1  6
 11 12  1  0
 11 15  1  0
 12 13  1  0
 13 14  1  0
 14 15  1  0
 15 16  2  0
 17 18  1  0
 18 19  2  0
M  END
