
     RDKit          3D

 19 20  0  0  0  0  0  0  0  0999 V2000
   -2.4340   -0.0610   -1.5820 C   0  0  0  0  0  0  0  0  0  0  0  0
   -1.0760   -0.1150   -0.7990 C   0  0  2  0  0  0  0  0  0  0  0  0
   -0.9570   -1.4260   -0.1960 N   0  0  0  0  0  0  0  0  0  0  0  0
   -0.0690   -2.4840   -0.4290 C   0  0  0  0  0  0  0  0  0  0  0  0
   -0.6600   -3.4430   -1.1360 O   0  0  0  0  0  0  0  0  0  0  0  0
    1.2780   -2.6800   -0.0490 N   0  0  0  0  0  0  0  0  0  0  0  0
    2.0910   -2.0930    0.9070 N   0  0  0  0  0  0  0  0  0  0  0  0
    2.7720   -0.8500    0.9090 C   0  0  0  0  0  0  0  0  0  0  0  0
    3.1400   -0.3970    2.0590 O   0  0  0  0  0  0  0  0  0  0  0  0
    3.1220   -0.0110   -0.1790 N   0  0  0  0  0  0  0  0  0  0  0  0
    2.2570    0.6280   -1.1070 C   0  0  0  0  0  0  0  0  0  0  0  0
    2.4110    0.2400   -2.4670 O   0  0  0  0  0  0  0  0  0  0  0  0
    1.3680    1.5030   -0.8520 N   0  0  0  0  0  0  0  0  0  0  0  0
    0.8510    2.1790    0.1900 C   0  0  0  0  0  0  0  0  0  0  0  0
   -0.3280    1.8840    0.7160 C   0  0  0  0  0  0  0  0  0  0  0  0
   -0.9490    2.5600    1.8330 O   0  0  0  0  0  0  0  0  0  0  0  0
   -2.1710    1.9930    2.1330 C   0  0  0  0  0  0  0  0  0  0  0  0
   -2.3390    0.9250    1.1530 C   0  0  0  0  0  0  0  0  0  0  0  0
   -1.2560    0.8560    0.3250 C   0  0  0  0  0  0  0  0  0  0  0  0
  2  1  1  6
  2  3  1  0
  2 19  1  0
  3  4  1  0
  4  5  2  0
  4  6  1  0
  6  7  1  0
  7  8  1  0
  8  9  2  0
  8 10  1  0
 10 11  1  0
 11 12  1  0
 11 13  2  0
 13 14  1  0
 14 15  2  0
 15 16  1  0
 15 19  1  0
 16 17  1  0
 17 18  1  0
 18 19  2  0
M  END
