
     RDKit          3D

 19 20  0  0  0  0  0  0  0  0999 V2000
    0.6250    1.0710    0.9620 C   0  0  0  0  0  0  0  0  0  0  0  0
    0.5160   -0.1200    0.0500 C   0  0  1  0  0  0  0  0  0  0  0  0
    1.8210   -0.7750    0.0830 N   0  0  0  0  0  0  0  0  0  0  0  0
    2.8910   -0.2330   -0.3540 C   0  0  0  0  0  0  0  0  0  0  0  0
    4.1180   -0.7900   -0.3480 N   0  0  0  0  0  0  0  0  0  0  0  0
    4.9810    0.0620   -0.8790 N   0  0  0  0  0  0  0  0  0  0  0  0
    4.3330    1.1870   -1.2380 C   0  0  0  0  0  0  0  0  0  0  0  0
    4.8170    2.2370   -1.7810 O   0  0  0  0  0  0  0  0  0  0  0  0
    3.0460    0.9830   -0.9060 N   0  0  0  0  0  0  0  0  0  0  0  0
   -0.5740   -1.0740    0.4820 C   0  0  1  0  0  0  0  0  0  0  0  0
   -0.4080   -1.5470    1.7700 O   0  0  0  0  0  0  0  0  0  0  0  0
   -1.9380   -0.5870    0.2190 C   0  0  0  0  0  0  0  0  0  0  0  0
   -2.2420    0.5570   -0.4800 C   0  0  0  0  0  0  0  0  0  0  0  0
   -3.5570    0.9560   -0.6970 C   0  0  0  0  0  0  0  0  0  0  0  0
   -3.8260    2.1150   -1.4050 O   0  0  0  0  0  0  0  0  0  0  0  0
   -4.5700    0.2200   -0.2200 N   0  0  0  0  0  0  0  0  0  0  0  0
   -4.2890   -0.8960    0.4620 C   0  0  0  0  0  0  0  0  0  0  0  0
   -3.0050   -1.3310    0.7010 C   0  0  0  0  0  0  0  0  0  0  0  0
   -2.7900   -2.5110    1.4240 O   0  0  0  0  0  0  0  0  0  0  0  0
  2  1  1  1
  2  3  1  0
  2 10  1  0
  3  4  2  3
  4  5  1  0
  4  9  1  0
  5  6  1  0
  6  7  1  0
  7  8  2  0
  7  9  1  0
 10 11  1  1
 10 12  1  0
 12 13  2  0
 12 18  1  0
 13 14  1  0
 14 15  1  0
 14 16  2  0
 16 17  1  0
 17 18  2  0
 18 19  1  0
M  END
