
     RDKit          3D

 19 20  0  0  0  0  0  0  0  0999 V2000
   -4.5280   -1.4560   -1.1940 C   0  0  0  0  0  0  0  0  0  0  0  0
   -3.1260   -1.4070   -0.7340 C   0  0  0  0  0  0  0  0  0  0  0  0
   -2.3720   -2.4220   -0.9290 O   0  0  0  0  0  0  0  0  0  0  0  0
   -2.5280   -0.3150   -0.0840 N   0  0  0  0  0  0  0  0  0  0  0  0
   -1.1260   -0.3150    0.3570 C   0  0  2  0  0  0  0  0  0  0  0  0
   -0.5850   -1.5790    0.1220 O   0  0  0  0  0  0  0  0  0  0  0  0
   -1.1710   -0.0100    1.7740 N   0  0  0  0  0  0  0  0  0  0  0  0
   -0.8820    1.2850    2.2580 C   0  0  0  0  0  0  0  0  0  0  0  0
   -1.2730    1.6940    3.3990 O   0  0  0  0  0  0  0  0  0  0  0  0
   -0.0970    2.1930    1.4060 C   0  0  0  0  0  0  0  0  0  0  0  0
   -0.3290    1.9010    0.0380 N   0  0  0  0  0  0  0  0  0  0  0  0
   -0.3390    0.6280   -0.3630 N   0  0  0  0  0  0  0  0  0  0  0  0
    0.6110    0.1500   -1.2030 N   0  0  0  0  0  0  0  0  0  0  0  0
    2.0050   -0.0070   -0.8950 C   0  0  0  0  0  0  0  0  0  0  0  0
    3.0160    0.1080   -1.7420 C   0  0  0  0  0  0  0  0  0  0  0  0
    4.3130   -0.1190   -1.0770 C   0  0  0  0  0  0  0  0  0  0  0  0
    3.9200   -0.3900    0.3130 C   0  0  0  0  0  0  0  0  0  0  0  0
    2.5990   -0.3220    0.3980 C   0  0  0  0  0  0  0  0  0  0  0  0
    1.9290   -0.5330    1.5950 O   0  0  0  0  0  0  0  0  0  0  0  0
  1  2  1  0
  2  3  2  0
  2  4  1  0
  4  5  1  0
  5  6  1  1
  5  7  1  0
  5 12  1  0
  7  8  1  0
  8  9  2  0
  8 10  1  0
 10 11  1  0
 11 12  1  0
 12 13  1  0
 13 14  1  0
 14 15  2  0
 14 18  1  0
 15 16  1  0
 16 17  1  0
 17 18  2  0
 18 19  1  0
M  END
