
     RDKit          3D

 22 24  0  0  0  0  0  0  0  0999 V2000
    2.4380   -2.2520   -0.5810 C   0  0  0  0  0  0  0  0  0  0  0  0
    2.3130   -1.6490    0.7730 C   0  0  0  0  0  0  0  0  0  0  0  0
    1.8730   -0.2390    0.8520 C   0  0  1  0  0  0  0  0  0  0  0  0
    2.8250    0.6480    0.1410 C   0  0  0  0  0  0  0  0  0  0  0  0
    3.6490    1.4820    0.8620 C   0  0  0  0  0  0  0  0  0  0  0  0
    4.5420    2.3370    0.2450 C   0  0  0  0  0  0  0  0  0  0  0  0
    4.5990    2.3440   -1.1150 C   0  0  0  0  0  0  0  0  0  0  0  0
    3.7820    1.5160   -1.8400 C   0  0  0  0  0  0  0  0  0  0  0  0
    2.8930    0.6660   -1.2160 C   0  0  0  0  0  0  0  0  0  0  0  0
    0.4830    0.0560    0.4750 C   0  0  0  0  0  0  0  0  0  0  0  0
   -0.4810   -0.8990    0.3880 C   0  0  0  0  0  0  0  0  0  0  0  0
   -0.2620   -2.2410    0.6590 O   0  0  0  0  0  0  0  0  0  0  0  0
   -1.7650   -0.4900    0.0030 C   0  0  0  0  0  0  0  0  0  0  0  0
   -2.0620    0.8130   -0.2800 C   0  0  0  0  0  0  0  0  0  0  0  0
   -1.0730    1.6700   -0.1710 O   0  0  0  0  0  0  0  0  0  0  0  0
    0.1300    1.3730    0.1770 C   0  0  0  0  0  0  0  0  0  0  0  0
    1.0620    2.2450    0.2690 O   0  0  0  0  0  0  0  0  0  0  0  0
   -3.2740    1.5220   -0.6950 C   0  0  0  0  0  0  0  0  0  0  0  0
   -4.5630    1.0470   -0.1560 C   0  0  0  0  0  0  0  0  0  0  0  0
   -4.5050   -0.2320    0.6250 C   0  0  0  0  0  0  0  0  0  0  0  0
   -4.0780   -1.3120   -0.3720 C   0  0  0  0  0  0  0  0  0  0  0  0
   -2.6490   -1.6500   -0.0270 C   0  0  0  0  0  0  0  0  0  0  0  0
  1  2  1  0
  3  2  1  6
  3  4  1  0
  3 10  1  0
  4  5  2  0
  4  9  1  0
  5  6  1  0
  6  7  2  0
  7  8  1  0
  8  9  2  0
 10 11  2  0
 10 16  1  0
 11 12  1  0
 11 13  1  0
 13 14  2  0
 13 22  1  0
 14 15  1  0
 14 18  1  0
 15 16  1  0
 16 17  2  0
 18 19  1  0
 19 20  1  0
 20 21  1  0
 21 22  1  0
M  END
