
     RDKit          3D

 33 33  0  0  0  0  0  0  0  0999 V2000
    3.6930    3.2120   -0.4100 C   0  0  0  0  0  0  0  0  0  0  0  0
    4.2670    2.1730    0.5540 C   0  0  2  0  0  0  0  0  0  0  0  0
    3.3070    2.0300    1.5490 O   0  0  0  0  0  0  0  0  0  0  0  0
    5.4010    2.6870    1.2030 O   0  0  0  0  0  0  0  0  0  0  0  0
    4.5010    0.8680   -0.0880 C   0  0  2  0  0  0  0  0  0  0  0  0
    5.5460    0.8620   -1.1680 C   0  0  0  0  0  0  0  0  0  0  0  0
    6.9040    1.2780   -0.7190 C   0  0  0  0  0  0  0  0  0  0  0  0
    7.4080    0.4390    0.2910 O   0  0  0  0  0  0  0  0  0  0  0  0
    3.3360    0.3990   -0.6790 O   0  0  0  0  0  0  0  0  0  0  0  0
    2.8740   -0.7970   -0.2100 C   0  0  2  0  0  0  0  0  0  0  0  0
    3.0610   -1.7110   -1.3050 O   0  0  0  0  0  0  0  0  0  0  0  0
    1.4090   -0.8370    0.1010 C   0  0  1  0  0  0  0  0  0  0  0  0
    1.0300    0.0780    1.0680 O   0  0  0  0  0  0  0  0  0  0  0  0
    0.6540   -0.5730   -1.0340 O   0  0  0  0  0  0  0  0  0  0  0  0
   -0.7220   -0.6560   -0.6070 C   0  0  1  0  0  0  0  0  0  0  0  0
   -1.5170   -0.1330   -1.5940 O   0  0  0  0  0  0  0  0  0  0  0  0
   -2.1100    1.0640   -1.3760 C   0  0  0  0  0  0  0  0  0  0  0  0
   -3.0880    1.0670   -0.2640 C   0  0  2  0  0  0  0  0  0  0  0  0
   -4.1430    0.2130   -0.5580 O   0  0  0  0  0  0  0  0  0  0  0  0
   -3.7150    2.4620   -0.0710 C   0  0  0  0  0  0  0  0  0  0  0  0
   -4.6850    2.3430    1.0780 C   0  0  2  0  0  0  0  0  0  0  0  0
   -5.6550    1.4090    0.7810 O   0  0  0  0  0  0  0  0  0  0  0  0
   -5.3370    3.6730    1.3310 C   0  0  0  0  0  0  0  0  0  0  0  0
   -4.3880    4.6210    1.6300 O   0  0  0  0  0  0  0  0  0  0  0  0
   -0.9520   -2.1020   -0.3950 C   0  0  2  0  0  0  0  0  0  0  0  0
   -2.3980   -2.4370   -0.3200 C   0  0  0  0  0  0  0  0  0  0  0  0
   -2.6060   -3.8150   -0.1710 O   0  0  0  0  0  0  0  0  0  0  0  0
   -3.9950   -3.9900   -0.1140 C   0  0  0  0  0  0  0  0  0  0  0  0
   -4.2980   -5.4610    0.0470 C   0  0  0  0  0  0  0  0  0  0  0  0
   -3.7920   -6.1970   -1.0240 O   0  0  0  0  0  0  0  0  0  0  0  0
   -0.2500   -2.4850    0.7520 O   0  0  0  0  0  0  0  0  0  0  0  0
    1.0910   -2.2130    0.6650 C   0  0  1  0  0  0  0  0  0  0  0  0
    1.6460   -3.1410   -0.2420 O   0  0  0  0  0  0  0  0  0  0  0  0
  2  1  1  6
  2  3  1  0
  2  4  1  0
  2  5  1  0
  5  6  1  6
  5  9  1  0
  6  7  1  0
  7  8  1  0
  9 10  1  0
 10 11  1  6
 10 12  1  0
 12 13  1  1
 12 14  1  0
 12 32  1  0
 14 15  1  0
 15 16  1  6
 15 25  1  0
 16 17  1  0
 17 18  1  0
 18 19  1  6
 18 20  1  0
 20 21  1  0
 21 22  1  6
 21 23  1  0
 23 24  1  0
 25 26  1  1
 25 31  1  0
 26 27  1  0
 27 28  1  0
 28 29  1  0
 29 30  1  0
 31 32  1  0
 32 33  1  6
M  END
