
     RDKit          3D

 34 37  0  0  0  0  0  0  0  0999 V2000
   -1.3660    4.8410    0.2390 C   0  0  0  0  0  0  0  0  0  0  0  0
   -1.8700    3.6140    0.9350 C   0  0  0  0  0  0  0  0  0  0  0  0
   -1.6140    2.3540    0.0650 C   0  0  2  0  0  0  0  0  0  0  0  0
   -2.3650    2.5850   -1.2300 C   0  0  0  0  0  0  0  0  0  0  0  0
   -2.0870    1.2180    0.7890 N   0  0  0  0  0  0  0  0  0  0  0  0
   -2.2320   -0.1170    0.3390 C   0  0  0  0  0  0  0  0  0  0  0  0
   -1.6180   -0.6440   -0.7800 C   0  0  0  0  0  0  0  0  0  0  0  0
   -0.7080    0.1480   -1.4870 O   0  0  0  0  0  0  0  0  0  0  0  0
    0.6610    0.1180   -1.1760 C   0  0  0  0  0  0  0  0  0  0  0  0
    1.2850   -1.2210   -1.3570 C   0  0  0  0  0  0  0  0  0  0  0  0
    2.7150   -1.1090   -0.9950 N   0  0  0  0  0  0  0  0  0  0  0  0
    3.4030   -0.6340   -2.1620 C   0  0  0  0  0  0  0  0  0  0  0  0
    4.8850   -0.9950   -2.1230 C   0  0  0  0  0  0  0  0  0  0  0  0
    5.4630   -0.3560   -0.9120 C   0  0  0  0  0  0  0  0  0  0  0  0
    5.4940   -1.0180    0.2960 C   0  0  0  0  0  0  0  0  0  0  0  0
    6.0450   -0.3900    1.4190 C   0  0  0  0  0  0  0  0  0  0  0  0
    6.5650    0.8880    1.3560 C   0  0  0  0  0  0  0  0  0  0  0  0
    7.0990    1.4580    2.5050 O   0  0  0  0  0  0  0  0  0  0  0  0
    7.6430    2.7480    2.5160 C   0  0  0  0  0  0  0  0  0  0  0  0
    6.5290    1.5380    0.1470 C   0  0  0  0  0  0  0  0  0  0  0  0
    5.9840    0.9210   -0.9730 C   0  0  0  0  0  0  0  0  0  0  0  0
   -1.8410   -1.9240   -1.2560 C   0  0  0  0  0  0  0  0  0  0  0  0
   -2.7260   -2.7100   -0.5600 C   0  0  0  0  0  0  0  0  0  0  0  0
   -3.3530   -2.2030    0.5720 C   0  0  0  0  0  0  0  0  0  0  0  0
   -3.1510   -0.9410    1.0580 C   0  0  0  0  0  0  0  0  0  0  0  0
   -3.8190   -0.3640    2.2520 C   0  0  1  0  0  0  0  0  0  0  0  0
   -4.6830    0.7250    1.7540 N   0  0  0  0  0  0  0  0  0  0  0  0
   -6.0610    0.2510    1.6640 C   0  0  0  0  0  0  0  0  0  0  0  0
   -4.6940   -1.3680    2.8860 C   0  0  0  0  0  0  0  0  0  0  0  0
   -4.8810   -2.5690    2.4440 C   0  0  0  0  0  0  0  0  0  0  0  0
   -4.2550   -3.0790    1.2840 N   0  0  0  0  0  0  0  0  0  0  0  0
   -2.8320   -4.0300   -1.2500 C   0  0  0  0  0  0  0  0  0  0  0  0
   -2.4190   -3.7320   -2.6890 C   0  0  0  0  0  0  0  0  0  0  0  0
   -1.3310   -2.6880   -2.4330 C   0  0  0  0  0  0  0  0  0  0  0  0
  1  2  1  0
  2  3  1  0
  3  4  1  6
  3  5  1  0
  5  6  1  0
  6  7  2  0
  6 25  1  0
  7  8  1  0
  7 22  1  0
  8  9  1  0
  9 10  1  0
 10 11  1  0
 11 12  1  0
 12 13  1  0
 13 14  1  0
 14 15  2  0
 14 21  1  0
 15 16  1  0
 16 17  2  0
 17 18  1  0
 17 20  1  0
 18 19  1  0
 20 21  2  0
 22 23  2  0
 22 34  1  0
 23 24  1  0
 23 32  1  0
 24 25  2  0
 24 31  1  0
 25 26  1  0
 26 27  1  6
 26 29  1  0
 27 28  1  0
 29 30  2  0
 30 31  1  0
 32 33  1  0
 33 34  1  0
M  CHG  2  11   1  27   1
M  END
