
     RDKit          3D

 34 37  0  0  0  0  0  0  0  0999 V2000
   -3.3580    7.8550    0.4100 C   0  0  0  0  0  0  0  0  0  0  0  0
   -3.2950    6.3840    0.2600 C   0  0  0  0  0  0  0  0  0  0  0  0
   -4.4490    5.6850    0.6060 C   0  0  0  0  0  0  0  0  0  0  0  0
   -4.4640    4.3240    0.5310 C   0  0  0  0  0  0  0  0  0  0  0  0
   -3.3440    3.6880    0.1150 C   0  0  0  0  0  0  0  0  0  0  0  0
   -2.1620    4.3400   -0.2440 C   0  0  0  0  0  0  0  0  0  0  0  0
   -1.0900    3.4740   -0.5650 N   0  0  0  0  0  0  0  0  0  0  0  0
   -0.9000    2.2900    0.2060 C   0  0  0  0  0  0  0  0  0  0  0  0
   -1.7240    2.1330    1.1960 O   0  0  0  0  0  0  0  0  0  0  0  0
    0.0410    1.2960    0.0220 N   0  0  0  0  0  0  0  0  0  0  0  0
    0.1260    0.1620    0.9300 C   0  0  2  0  0  0  0  0  0  0  0  0
    1.2660   -0.7810    0.5110 C   0  0  0  0  0  0  0  0  0  0  0  0
    2.4590   -0.1390    0.0540 C   0  0  0  0  0  0  0  0  0  0  0  0
    3.3160    0.8420    0.7320 C   0  0  0  0  0  0  0  0  0  0  0  0
    4.2430    1.2500   -0.3280 N   0  0  0  0  0  0  0  0  0  0  0  0
    5.6080    1.2680   -0.0460 C   0  0  0  0  0  0  0  0  0  0  0  0
    6.1380    0.1580    0.8350 C   0  0  2  0  0  0  0  0  0  0  0  0
    7.6680    0.2840    0.7050 C   0  0  0  0  0  0  0  0  0  0  0  0
    8.0390   -0.7400   -0.3380 C   0  0  0  0  0  0  0  0  0  0  0  0
    6.7040   -1.3650   -0.6980 C   0  0  0  0  0  0  0  0  0  0  0  0
    5.8530   -1.0900    0.3360 O   0  0  0  0  0  0  0  0  0  0  0  0
   -1.0390   -0.7200    0.1800 C   0  0  0  0  0  0  0  0  0  0  0  0
   -0.9470   -0.5960   -1.1770 C   0  0  0  0  0  0  0  0  0  0  0  0
   -1.5270   -1.6100   -1.9740 C   0  0  0  0  0  0  0  0  0  0  0  0
   -2.1480   -2.6620   -1.3870 C   0  0  0  0  0  0  0  0  0  0  0  0
   -2.6250   -3.7370   -2.3000 C   0  0  0  0  0  0  0  0  0  0  0  0
   -2.2320   -2.7430    0.0050 C   0  0  0  0  0  0  0  0  0  0  0  0
   -2.7450   -4.0060    0.4940 C   0  0  0  0  0  0  0  0  0  0  0  0
   -3.9470   -3.9300    1.3450 N   0  0  0  0  0  0  0  0  0  0  0  0
   -5.0100   -4.4250    0.4270 C   0  0  2  0  0  0  0  0  0  0  0  0
   -5.9890   -5.4440    0.6490 C   0  0  0  0  0  0  0  0  0  0  0  0
   -4.6880   -5.9100    0.0890 C   0  0  0  0  0  0  0  0  0  0  0  0
   -1.6550   -1.7210    0.8060 C   0  0  0  0  0  0  0  0  0  0  0  0
   -2.1720    5.6890   -0.1630 C   0  0  0  0  0  0  0  0  0  0  0  0
  1  2  1  0
  2  3  2  0
  2 34  1  0
  3  4  1  0
  4  5  2  0
  5  6  1  0
  6  7  1  0
  6 34  2  0
  7  8  1  0
  8  9  2  0
  8 10  1  0
 10 11  1  0
 11 12  1  6
 11 22  1  0
 12 13  1  0
 13 14  1  0
 14 15  1  0
 15 16  1  0
 17 16  1  6
 17 18  1  0
 17 21  1  0
 18 19  1  0
 19 20  1  0
 20 21  1  0
 22 23  2  0
 22 33  1  0
 23 24  1  0
 24 25  2  0
 25 26  1  0
 25 27  1  0
 27 28  1  0
 27 33  2  0
 28 29  1  0
 30 29  1  1
 30 31  1  0
 30 32  1  0
 31 32  1  0
M  CHG  2  15   1  29   1
M  END
