
     RDKit          3D

 34 38  0  0  0  0  0  0  0  0999 V2000
   -2.7800   -0.6880   -3.3670 O   0  0  0  0  0  0  0  0  0  0  0  0
   -2.8640   -0.1660   -2.2150 C   0  0  0  0  0  0  0  0  0  0  0  0
   -3.8730    0.6310   -1.9250 O   0  0  0  0  0  0  0  0  0  0  0  0
   -4.0520    1.2120   -0.7700 C   0  0  0  0  0  0  0  0  0  0  0  0
   -3.1100    0.9550    0.1830 C   0  0  0  0  0  0  0  0  0  0  0  0
   -2.0030    0.1120   -0.0590 C   0  0  0  0  0  0  0  0  0  0  0  0
   -1.1040   -0.1050    0.9350 O   0  0  0  0  0  0  0  0  0  0  0  0
   -1.8540   -0.4780   -1.2950 C   0  0  0  0  0  0  0  0  0  0  0  0
   -0.7500   -1.3540   -1.7070 C   0  0  2  0  0  0  0  0  0  0  0  0
    0.6000   -0.8900   -1.1910 C   0  0  0  0  0  0  0  0  0  0  0  0
    0.9910    0.4300   -1.2490 C   0  0  0  0  0  0  0  0  0  0  0  0
    2.2310    0.8390   -0.8160 C   0  0  0  0  0  0  0  0  0  0  0  0
    3.1200   -0.1130   -0.3020 C   0  0  0  0  0  0  0  0  0  0  0  0
    2.7770   -1.4370   -0.2230 C   0  0  0  0  0  0  0  0  0  0  0  0
    3.6920   -2.3930    0.2780 N   0  0  0  0  0  0  0  0  0  0  0  0
    4.5360   -2.3770    1.7390 S   0  0  2  0  0  0  0  0  0  0  0  0
    5.4340   -3.6060    1.8360 O   0  0  0  0  0  0  0  0  0  0  0  0
    3.5580   -2.3920    2.8940 O   0  0  0  0  0  0  0  0  0  0  0  0
    5.5870   -0.9960    1.8360 C   0  0  0  0  0  0  0  0  0  0  0  0
    6.8190   -0.9370    1.2250 C   0  0  0  0  0  0  0  0  0  0  0  0
    7.6140    0.1800    1.3690 C   0  0  0  0  0  0  0  0  0  0  0  0
    7.2170    1.2590    2.1140 C   0  0  0  0  0  0  0  0  0  0  0  0
    5.9850    1.2040    2.7270 C   0  0  0  0  0  0  0  0  0  0  0  0
    5.1870    0.0880    2.5860 C   0  0  0  0  0  0  0  0  0  0  0  0
    1.5160   -1.7900   -0.6740 C   0  0  0  0  0  0  0  0  0  0  0  0
   -0.6010   -1.5290   -3.1970 C   0  0  1  0  0  0  0  0  0  0  0  0
   -0.3200   -0.4560   -4.1430 C   0  0  0  0  0  0  0  0  0  0  0  0
    0.7660   -1.4300   -3.7700 C   0  0  0  0  0  0  0  0  0  0  0  0
   -2.9180    1.3850    1.5920 C   0  0  0  0  0  0  0  0  0  0  0  0
   -3.8630    0.5700    2.4550 C   0  0  0  0  0  0  0  0  0  0  0  0
   -5.2460    1.1910    2.4240 C   0  0  0  0  0  0  0  0  0  0  0  0
   -5.9500    0.7680    1.1560 C   0  0  0  0  0  0  0  0  0  0  0  0
   -6.1620    2.0030    0.3100 C   0  0  0  0  0  0  0  0  0  0  0  0
   -5.3070    2.0010   -0.9150 C   0  0  0  0  0  0  0  0  0  0  0  0
  1  2  2  0
  2  3  1  0
  2  8  1  0
  3  4  1  0
  4  5  2  0
  4 34  1  0
  5  6  1  0
  5 29  1  0
  6  7  1  0
  6  8  2  0
  9  8  1  6
  9 10  1  0
  9 26  1  0
 10 11  2  0
 10 25  1  0
 11 12  1  0
 12 13  2  0
 13 14  1  0
 14 15  1  0
 14 25  2  0
 16 15  1  6
 16 17  2  0
 16 18  2  0
 16 19  1  0
 19 20  2  0
 19 24  1  0
 20 21  1  0
 21 22  2  0
 22 23  1  0
 23 24  2  0
 26 27  1  6
 26 28  1  0
 27 28  1  0
 29 30  1  0
 30 31  1  0
 31 32  1  0
 32 33  1  0
 33 34  1  0
M  END
