
     RDKit          3D

 32 35  0  0  0  0  0  0  0  0999 V2000
    5.9820   -1.8720    1.7130 C   0  0  0  0  0  0  0  0  0  0  0  0
    5.9370   -0.8030    0.8810 C   0  0  0  0  0  0  0  0  0  0  0  0
    6.8230   -0.7720   -0.2680 C   0  0  0  0  0  0  0  0  0  0  0  0
    6.8560    0.1560   -1.0840 O   0  0  0  0  0  0  0  0  0  0  0  0
    7.6910   -1.8380   -0.4840 O   0  0  0  0  0  0  0  0  0  0  0  0
    4.9860    0.2380    1.2210 C   0  0  0  0  0  0  0  0  0  0  0  0
    4.2640    0.0710    2.2690 O   0  0  0  0  0  0  0  0  0  0  0  0
    4.7750    1.4290    0.5010 N   0  0  0  0  0  0  0  0  0  0  0  0
    3.7940    2.4320    0.9100 C   0  0  0  0  0  0  0  0  0  0  0  0
    2.4440    1.9610    0.5260 C   0  0  0  0  0  0  0  0  0  0  0  0
    2.0870    2.1440   -0.8090 C   0  0  0  0  0  0  0  0  0  0  0  0
    0.8370    1.7410   -1.2510 C   0  0  0  0  0  0  0  0  0  0  0  0
   -0.0790    1.1600   -0.4150 C   0  0  0  0  0  0  0  0  0  0  0  0
   -1.3710    0.7530   -0.8890 N   0  0  0  0  0  0  0  0  0  0  0  0
   -2.4970    0.5900   -0.0740 N   0  0  0  0  0  0  0  0  0  0  0  0
   -3.5320    0.2180   -0.7440 C   0  0  0  0  0  0  0  0  0  0  0  0
   -4.7620   -0.0000   -0.1180 O   0  0  0  0  0  0  0  0  0  0  0  0
   -4.8620   -0.6820    1.0670 C   0  0  0  0  0  0  0  0  0  0  0  0
   -3.8410   -1.2360    1.7950 C   0  0  0  0  0  0  0  0  0  0  0  0
   -4.0650   -1.9100    2.9970 C   0  0  0  0  0  0  0  0  0  0  0  0
   -5.3420   -2.0420    3.4980 C   0  0  0  0  0  0  0  0  0  0  0  0
   -6.3390   -1.4960    2.7790 N   0  0  0  0  0  0  0  0  0  0  0  0
   -6.1400   -0.8390    1.6130 C   0  0  0  0  0  0  0  0  0  0  0  0
   -3.1840    0.0870   -2.1670 C   0  0  1  0  0  0  0  0  0  0  0  0
   -3.4390   -1.3020   -2.7070 C   0  0  0  0  0  0  0  0  0  0  0  0
   -3.6920   -1.0460   -4.0470 O   0  0  0  0  0  0  0  0  0  0  0  0
   -3.7860    0.3100   -4.2280 C   0  0  0  0  0  0  0  0  0  0  0  0
   -3.9640    0.8990   -2.9860 O   0  0  0  0  0  0  0  0  0  0  0  0
   -1.7550    0.4460   -2.2180 C   0  0  0  0  0  0  0  0  0  0  0  0
   -0.9690    0.4930   -3.2000 O   0  0  0  0  0  0  0  0  0  0  0  0
    0.2930    0.9880    0.9010 C   0  0  0  0  0  0  0  0  0  0  0  0
    1.5460    1.3860    1.3700 C   0  0  0  0  0  0  0  0  0  0  0  0
  1  2  2  0
  2  3  1  0
  2  6  1  0
  3  4  2  0
  3  5  1  0
  6  7  2  0
  6  8  1  0
  8  9  1  0
  9 10  1  0
 10 11  2  0
 10 32  1  0
 11 12  1  0
 12 13  2  0
 13 14  1  0
 13 31  1  0
 14 15  1  0
 14 29  1  0
 15 16  2  0
 16 17  1  0
 16 24  1  0
 17 18  1  0
 18 19  2  0
 18 23  1  0
 19 20  1  0
 20 21  2  0
 21 22  1  0
 22 23  2  0
 24 25  1  6
 24 28  1  0
 24 29  1  0
 25 26  1  0
 26 27  1  0
 27 28  1  0
 29 30  2  0
 31 32  2  0
M  END
