
     RDKit          3D

 32 35  0  0  0  0  0  0  0  0999 V2000
   -8.7610   -3.1070    0.5210 C   0  0  0  0  0  0  0  0  0  0  0  0
   -8.7550   -1.6080    0.6480 C   0  0  0  0  0  0  0  0  0  0  0  0
   -7.4700   -1.0550    0.4410 O   0  0  0  0  0  0  0  0  0  0  0  0
   -6.7460   -1.1830   -0.7040 C   0  0  0  0  0  0  0  0  0  0  0  0
   -7.2120   -1.8280   -1.6680 O   0  0  0  0  0  0  0  0  0  0  0  0
   -5.4320   -0.5680   -0.8010 C   0  0  0  0  0  0  0  0  0  0  0  0
   -4.6120   -0.6260   -1.8950 C   0  0  0  0  0  0  0  0  0  0  0  0
   -3.4630    0.0700   -1.6090 N   0  0  0  0  0  0  0  0  0  0  0  0
   -3.5040    0.5760   -0.3790 C   0  0  0  0  0  0  0  0  0  0  0  0
   -2.5820    1.3770    0.4040 C   0  0  0  0  0  0  0  0  0  0  0  0
   -2.9620    1.6940    1.6270 O   0  0  0  0  0  0  0  0  0  0  0  0
   -1.3380    1.8750    0.0670 N   0  0  0  0  0  0  0  0  0  0  0  0
   -0.5040    2.6790    0.9980 C   0  0  0  0  0  0  0  0  0  0  0  0
    0.1820    3.6820    0.0950 C   0  0  2  0  0  0  0  0  0  0  0  0
   -0.2700    3.3360   -1.3080 C   0  0  0  0  0  0  0  0  0  0  0  0
   -0.5340    1.8180   -1.0960 C   0  0  1  0  0  0  0  0  0  0  0  0
    0.8450    1.2600   -0.7430 C   0  0  0  0  0  0  0  0  0  0  0  0
    1.8970    2.3220   -0.6350 C   0  0  2  0  0  0  0  0  0  0  0  0
    3.1120    1.6870   -0.0000 C   0  0  0  0  0  0  0  0  0  0  0  0
    3.5870    2.1710    1.0420 O   0  0  0  0  0  0  0  0  0  0  0  0
    3.7200    0.5440   -0.5750 N   0  0  0  0  0  0  0  0  0  0  0  0
    4.8490   -0.1380   -0.0850 C   0  0  0  0  0  0  0  0  0  0  0  0
    5.2880   -1.2520   -0.8130 C   0  0  0  0  0  0  0  0  0  0  0  0
    6.3830   -1.9930   -0.4220 C   0  0  0  0  0  0  0  0  0  0  0  0
    7.0780   -1.6420    0.7140 C   0  0  0  0  0  0  0  0  0  0  0  0
    8.1700   -2.4280    1.0510 O   0  0  0  0  0  0  0  0  0  0  0  0
    8.9700   -2.1800    2.1910 C   0  0  0  0  0  0  0  0  0  0  0  0
    9.5670   -0.9250    2.1630 O   0  0  0  0  0  0  0  0  0  0  0  0
    6.6690   -0.5920    1.4040 N   0  0  0  0  0  0  0  0  0  0  0  0
    5.5830    0.1510    1.0270 C   0  0  0  0  0  0  0  0  0  0  0  0
    1.5440    3.3940    0.1420 O   0  0  0  0  0  0  0  0  0  0  0  0
   -4.7480    0.1710    0.1280 C   0  0  0  0  0  0  0  0  0  0  0  0
  1  2  1  0
  2  3  1  0
  3  4  1  0
  4  5  2  0
  4  6  1  0
  6  7  2  0
  6 32  1  0
  7  8  1  0
  8  9  1  0
  9 10  1  0
  9 32  2  0
 10 11  2  0
 10 12  1  0
 12 13  1  0
 12 16  1  0
 14 13  1  1
 14 15  1  0
 14 31  1  0
 15 16  1  0
 16 17  1  1
 17 18  1  0
 18 19  1  1
 18 31  1  0
 19 20  2  0
 19 21  1  0
 21 22  1  0
 22 23  2  0
 22 30  1  0
 23 24  1  0
 24 25  2  0
 25 26  1  0
 25 29  1  0
 26 27  1  0
 27 28  1  0
 29 30  2  0
M  END
