
     RDKit          3D

 32 34  0  0  0  0  0  0  0  0999 V2000
   -3.5040    5.1280   -0.3680 C   0  0  0  0  0  0  0  0  0  0  0  0
   -2.2990    4.8660    0.4740 C   0  0  0  0  0  0  0  0  0  0  0  0
   -1.7810    3.5100    0.3130 N   0  0  0  0  0  0  0  0  0  0  0  0
   -0.7990    3.0490   -0.6330 C   0  0  0  0  0  0  0  0  0  0  0  0
   -0.2370    3.8180   -1.4860 O   0  0  0  0  0  0  0  0  0  0  0  0
   -0.5960    1.6880   -0.4440 O   0  0  0  0  0  0  0  0  0  0  0  0
   -0.9580    1.4490    0.9150 C   0  0  2  0  0  0  0  0  0  0  0  0
    0.1430    2.0270    1.7530 C   0  0  0  0  0  0  0  0  0  0  0  0
    1.4490    1.3660    1.1830 C   0  0  0  0  0  0  0  0  0  0  0  0
    1.2710   -0.0500    1.3550 N   0  0  0  0  0  0  0  0  0  0  0  0
    2.2000   -1.0170    0.9700 C   0  0  0  0  0  0  0  0  0  0  0  0
    1.7930   -2.2330    1.2330 O   0  0  0  0  0  0  0  0  0  0  0  0
    3.4790   -0.8610    0.3530 C   0  0  0  0  0  0  0  0  0  0  0  0
    4.1930   -2.0340    0.0590 C   0  0  0  0  0  0  0  0  0  0  0  0
    5.4210   -2.0330   -0.5220 C   0  0  0  0  0  0  0  0  0  0  0  0
    6.0270   -0.8560   -0.8540 C   0  0  0  0  0  0  0  0  0  0  0  0
    7.3370   -0.9060   -1.4730 C   0  0  0  0  0  0  0  0  0  0  0  0
    7.9030    0.1790   -1.7820 O   0  0  0  0  0  0  0  0  0  0  0  0
    7.9850   -2.0850   -1.7360 O   0  0  0  0  0  0  0  0  0  0  0  0
    5.3710    0.3180   -0.5880 C   0  0  0  0  0  0  0  0  0  0  0  0
    4.1090    0.3000    0.0100 C   0  0  0  0  0  0  0  0  0  0  0  0
   -0.0050   -0.5080    1.9970 C   0  0  0  0  0  0  0  0  0  0  0  0
   -1.1860    0.0390    1.2360 C   0  0  2  0  0  0  0  0  0  0  0  0
   -1.4300   -0.8160    0.0990 N   0  0  0  0  0  0  0  0  0  0  0  0
   -2.5960   -1.6070   -0.0720 C   0  0  0  0  0  0  0  0  0  0  0  0
   -3.4670   -1.5490    0.8360 O   0  0  0  0  0  0  0  0  0  0  0  0
   -2.8410   -2.4430   -1.1770 N   0  0  0  0  0  0  0  0  0  0  0  0
   -4.0490   -3.2430   -1.3230 C   0  0  1  0  0  0  0  0  0  0  0  0
   -4.8530   -2.8470   -2.5350 C   0  0  0  0  0  0  0  0  0  0  0  0
   -3.7450   -4.7270   -1.2900 C   0  0  0  0  0  0  0  0  0  0  0  0
   -2.1320    2.3390    1.0560 C   0  0  0  0  0  0  0  0  0  0  0  0
   -3.2200    2.1770    1.6670 O   0  0  0  0  0  0  0  0  0  0  0  0
  1  2  1  0
  2  3  1  0
  3  4  1  0
  3 31  1  0
  4  5  2  0
  4  6  1  0
  6  7  1  0
  7  8  1  1
  7 23  1  0
  7 31  1  0
  8  9  1  0
  9 10  1  0
 10 11  1  0
 10 22  1  0
 11 12  2  0
 11 13  1  0
 13 14  2  0
 13 21  1  0
 14 15  1  0
 15 16  2  0
 16 17  1  0
 16 20  1  0
 17 18  2  0
 17 19  1  0
 20 21  2  0
 22 23  1  0
 23 24  1  6
 24 25  1  0
 25 26  2  0
 25 27  1  0
 27 28  1  0
 28 29  1  6
 28 30  1  0
 31 32  2  0
M  END
