
     RDKit          3D

 32 34  0  0  0  0  0  0  0  0999 V2000
   -0.1950    2.2470   -2.1250 C   0  0  0  0  0  0  0  0  0  0  0  0
   -0.2030    2.0330   -0.8170 C   0  0  0  0  0  0  0  0  0  0  0  0
   -1.1800    1.0250   -0.3020 C   0  0  0  0  0  0  0  0  0  0  0  0
   -1.8980    0.3640   -1.4570 C   0  0  0  0  0  0  0  0  0  0  0  0
   -2.9270   -0.6320   -0.9590 C   0  0  2  0  0  0  0  0  0  0  0  0
   -2.8820   -0.7450    0.4010 O   0  0  0  0  0  0  0  0  0  0  0  0
   -4.0650   -0.5920    1.0740 C   0  0  0  0  0  0  0  0  0  0  0  0
   -4.7460    0.7280    0.9160 C   0  0  0  0  0  0  0  0  0  0  0  0
   -5.9510    0.7740    1.6450 O   0  0  0  0  0  0  0  0  0  0  0  0
   -2.5960   -1.8560   -1.5990 O   0  0  0  0  0  0  0  0  0  0  0  0
   -2.1280   -2.7720   -0.6990 C   0  0  0  0  0  0  0  0  0  0  0  0
   -0.5950   -2.7710   -0.5960 C   0  0  0  0  0  0  0  0  0  0  0  0
   -0.3160   -3.5250    0.6110 N   0  0  0  0  0  0  0  0  0  0  0  0
    0.5820   -3.1240    1.6350 C   0  0  0  0  0  0  0  0  0  0  0  0
    0.1170   -3.2990    2.8240 O   0  0  0  0  0  0  0  0  0  0  0  0
    1.8070   -2.6090    1.4920 O   0  0  0  0  0  0  0  0  0  0  0  0
    2.3670   -1.4470    1.1100 C   0  0  0  0  0  0  0  0  0  0  0  0
    1.7930   -0.2380    1.1250 N   0  0  0  0  0  0  0  0  0  0  0  0
    2.3450    0.9200    0.7530 C   0  0  0  0  0  0  0  0  0  0  0  0
    3.6450    0.8190    0.3090 N   0  0  0  0  0  0  0  0  0  0  0  0
    4.3300   -0.3140    0.2430 C   0  0  0  0  0  0  0  0  0  0  0  0
    5.6280   -0.3090   -0.2150 C   0  0  0  0  0  0  0  0  0  0  0  0
    6.3120   -1.5030   -0.2710 C   0  0  0  0  0  0  0  0  0  0  0  0
    5.7050   -2.6980    0.1290 C   0  0  0  0  0  0  0  0  0  0  0  0
    4.3910   -2.6720    0.5870 C   0  0  0  0  0  0  0  0  0  0  0  0
    3.6920   -1.4700    0.6460 C   0  0  0  0  0  0  0  0  0  0  0  0
    1.7700    2.2020    0.8110 N   0  0  0  0  0  0  0  0  0  0  0  0
    0.7370    2.7970    0.0000 C   0  0  0  0  0  0  0  0  0  0  0  0
    0.6040    4.1390    0.0010 C   0  0  0  0  0  0  0  0  0  0  0  0
   -0.3490    4.9320   -0.6910 C   0  0  0  0  0  0  0  0  0  0  0  0
   -1.2730    4.5510   -1.4270 O   0  0  0  0  0  0  0  0  0  0  0  0
   -0.2690    6.3300   -0.5500 O   0  0  0  0  0  0  0  0  0  0  0  0
  1  2  2  0
  2  3  1  0
  2 28  1  0
  3  4  1  0
  4  5  1  0
  5  6  1  1
  5 10  1  0
  6  7  1  0
  7  8  1  0
  8  9  1  0
 10 11  1  0
 11 12  1  0
 12 13  1  0
 13 14  1  0
 14 15  2  0
 14 16  1  0
 16 17  1  0
 17 18  2  0
 17 26  1  0
 18 19  1  0
 19 20  2  0
 19 27  1  0
 20 21  1  0
 21 22  2  0
 21 26  1  0
 22 23  1  0
 23 24  2  0
 24 25  1  0
 25 26  2  0
 27 28  1  0
 28 29  2  3
 29 30  1  0
 30 31  2  0
 30 32  1  0
M  END
