
     RDKit          3D

 32 34  0  0  0  0  0  0  0  0999 V2000
   -4.8270    2.1810    2.0690 C   0  0  0  0  0  0  0  0  0  0  0  0
   -4.5020    1.2020    1.0470 N   0  0  0  0  0  0  0  0  0  0  0  0
   -3.9390    1.6910   -0.2010 C   0  0  0  0  0  0  0  0  0  0  0  0
   -2.5930    2.3020   -0.1180 C   0  0  0  0  0  0  0  0  0  0  0  0
   -1.7710    2.3600   -1.4210 C   0  0  2  0  0  0  0  0  0  0  0  0
   -2.4450    2.7250   -2.5250 O   0  0  0  0  0  0  0  0  0  0  0  0
   -0.9490    1.0820   -1.4610 C   0  0  0  0  0  0  0  0  0  0  0  0
   -1.4410   -0.1820   -1.4010 C   0  0  0  0  0  0  0  0  0  0  0  0
   -0.5100   -1.1770   -1.0800 C   0  0  0  0  0  0  0  0  0  0  0  0
    0.7650   -0.9450   -0.8890 N   0  0  0  0  0  0  0  0  0  0  0  0
    1.2790    0.3210   -0.9700 C   0  0  0  0  0  0  0  0  0  0  0  0
    2.6540    0.6160   -0.7760 N   0  0  0  0  0  0  0  0  0  0  0  0
    3.6810   -0.3320   -0.4720 C   0  0  1  0  0  0  0  0  0  0  0  0
    5.0040    0.2020   -0.0980 C   0  0  0  0  0  0  0  0  0  0  0  0
    5.1760    1.0200    1.1050 C   0  0  0  0  0  0  0  0  0  0  0  0
    4.4320    2.2990    1.1490 C   0  0  0  0  0  0  0  0  0  0  0  0
    4.7720    3.1840    0.1300 O   0  0  0  0  0  0  0  0  0  0  0  0
    3.2340   -1.4410    0.4740 C   0  0  0  0  0  0  0  0  0  0  0  0
    4.3440   -2.2750    0.7170 O   0  0  0  0  0  0  0  0  0  0  0  0
    5.0230   -3.0270   -0.2140 C   0  0  0  0  0  0  0  0  0  0  0  0
    4.6550   -3.0070   -1.4160 O   0  0  0  0  0  0  0  0  0  0  0  0
    6.1260   -3.8160    0.1770 O   0  0  0  0  0  0  0  0  0  0  0  0
    0.3800    1.2820   -1.2500 N   0  0  0  0  0  0  0  0  0  0  0  0
   -0.9620   -2.5770   -0.8590 O   0  0  0  0  0  0  0  0  0  0  0  0
   -2.3270   -2.5000   -0.2730 C   0  0  0  0  0  0  0  0  0  0  0  0
   -3.1440   -3.5230   -0.6060 C   0  0  0  0  0  0  0  0  0  0  0  0
   -4.4880   -3.5160   -0.1900 C   0  0  0  0  0  0  0  0  0  0  0  0
   -4.8730   -2.4110    0.5500 C   0  0  0  0  0  0  0  0  0  0  0  0
   -4.0270   -1.3600    0.8950 C   0  0  0  0  0  0  0  0  0  0  0  0
   -2.7150   -1.4070    0.4940 C   0  0  0  0  0  0  0  0  0  0  0  0
   -4.7760   -0.1710    1.3910 C   0  0  0  0  0  0  0  0  0  0  0  0
   -5.7420   -0.3630    2.1780 O   0  0  0  0  0  0  0  0  0  0  0  0
  1  2  1  0
  2  3  1  0
  2 31  1  0
  3  4  1  0
  4  5  1  0
  5  6  1  6
  5  7  1  0
  7  8  1  0
  7 23  2  0
  8  9  2  0
  9 10  1  0
  9 24  1  0
 10 11  2  0
 11 12  1  0
 11 23  1  0
 12 13  1  0
 13 14  1  1
 13 18  1  0
 14 15  1  0
 15 16  1  0
 16 17  1  0
 18 19  1  0
 19 20  1  0
 20 21  2  0
 20 22  1  0
 24 25  1  0
 25 26  1  0
 25 30  2  0
 26 27  2  0
 27 28  1  0
 28 29  2  0
 29 30  1  0
 29 31  1  0
 31 32  2  0
M  END
