
     RDKit          3D

 32 35  0  0  0  0  0  0  0  0999 V2000
   -0.2470   -1.0050   -2.1830 C   0  0  0  0  0  0  0  0  0  0  0  0
   -1.4380   -1.3110   -1.3910 C   0  0  0  0  0  0  0  0  0  0  0  0
   -2.0240   -0.6320   -0.3300 C   0  0  0  0  0  0  0  0  0  0  0  0
   -3.1640   -1.0310    0.3420 C   0  0  0  0  0  0  0  0  0  0  0  0
   -3.6480   -0.0060    1.0980 O   0  0  0  0  0  0  0  0  0  0  0  0
   -2.8830    1.0040    0.9770 C   0  0  0  0  0  0  0  0  0  0  0  0
   -3.0940    2.1180    1.5710 O   0  0  0  0  0  0  0  0  0  0  0  0
   -1.8650    0.6290    0.1170 N   0  0  0  0  0  0  0  0  0  0  0  0
   -0.6740    1.4950    0.1990 C   0  0  0  0  0  0  0  0  0  0  0  0
   -0.7470    2.8290   -0.0780 C   0  0  0  0  0  0  0  0  0  0  0  0
    0.3210    3.6880    0.0050 C   0  0  0  0  0  0  0  0  0  0  0  0
    0.1910    5.0580   -0.2930 O   0  0  0  0  0  0  0  0  0  0  0  0
   -0.1380    5.9980    0.6580 C   0  0  0  0  0  0  0  0  0  0  0  0
   -0.3290    5.6190    1.8310 O   0  0  0  0  0  0  0  0  0  0  0  0
   -0.2630    7.3580    0.3450 O   0  0  0  0  0  0  0  0  0  0  0  0
    1.5520    3.1980    0.3900 C   0  0  0  0  0  0  0  0  0  0  0  0
    1.6480    1.8570    0.6760 C   0  0  0  0  0  0  0  0  0  0  0  0
    0.5710    1.0000    0.5900 C   0  0  0  0  0  0  0  0  0  0  0  0
    0.8230   -0.3730    0.9820 N   0  0  0  0  0  0  0  0  0  0  0  0
    1.9350   -1.0770    0.5270 C   0  0  0  0  0  0  0  0  0  0  0  0
    2.1440   -2.1740    1.2090 O   0  0  0  0  0  0  0  0  0  0  0  0
    2.8670   -0.8080   -0.5390 C   0  0  0  0  0  0  0  0  0  0  0  0
    2.8960    0.1290   -1.5170 C   0  0  0  0  0  0  0  0  0  0  0  0
    4.0100   -0.0990   -2.3360 C   0  0  0  0  0  0  0  0  0  0  0  0
    4.6530   -1.1930   -1.8360 C   0  0  0  0  0  0  0  0  0  0  0  0
    3.9620   -1.6000   -0.7720 N   0  0  0  0  0  0  0  0  0  0  0  0
   -0.0650   -1.0760    1.9020 C   0  0  0  0  0  0  0  0  0  0  0  0
   -0.4110   -2.4710    1.5060 C   0  0  0  0  0  0  0  0  0  0  0  0
   -1.7900   -2.7060    1.4320 O   0  0  0  0  0  0  0  0  0  0  0  0
   -2.2220   -3.7050    0.5990 C   0  0  0  0  0  0  0  0  0  0  0  0
   -3.6740   -3.4120    0.0330 C   0  0  0  0  0  0  0  0  0  0  0  0
   -3.9050   -2.0970    0.5410 N   0  0  0  0  0  0  0  0  0  0  0  0
  1  2  1  0
  2  3  2  3
  3  4  1  0
  3  8  1  0
  4  5  1  0
  4 32  2  0
  5  6  1  0
  6  7  2  0
  6  8  1  0
  8  9  1  0
  9 10  2  0
  9 18  1  0
 10 11  1  0
 11 12  1  0
 11 16  2  0
 12 13  1  0
 13 14  2  0
 13 15  1  0
 16 17  1  0
 17 18  2  0
 18 19  1  0
 19 20  1  0
 19 27  1  0
 20 21  2  0
 20 22  1  0
 22 23  2  0
 22 26  1  0
 23 24  1  0
 24 25  2  0
 25 26  1  0
 27 28  1  0
 28 29  1  0
 29 30  1  0
 30 31  1  0
 31 32  1  0
M  END
