
     RDKit          3D

 32 35  0  0  0  0  0  0  0  0999 V2000
   -3.7850    3.0350    0.3550 O   0  0  0  0  0  0  0  0  0  0  0  0
   -4.1780    1.9790    0.9670 C   0  0  0  0  0  0  0  0  0  0  0  0
   -5.2700    1.8480    1.9830 C   0  0  0  0  0  0  0  0  0  0  0  0
   -4.8460    0.7190    2.7700 N   0  0  0  0  0  0  0  0  0  0  0  0
   -4.0310   -0.1000    1.9040 C   0  0  0  0  0  0  0  0  0  0  0  0
   -3.7290   -1.3200    2.1210 O   0  0  0  0  0  0  0  0  0  0  0  0
   -3.6310    0.7040    0.7960 N   0  0  0  0  0  0  0  0  0  0  0  0
   -2.7350    0.2130   -0.2150 C   0  0  2  0  0  0  0  0  0  0  0  0
   -1.3650    0.4410    0.2040 C   0  0  0  0  0  0  0  0  0  0  0  0
   -0.8200    1.3050    1.1310 C   0  0  0  0  0  0  0  0  0  0  0  0
    0.5080    1.0870    1.1250 C   0  0  0  0  0  0  0  0  0  0  0  0
    0.7620    0.1050    0.2000 C   0  0  0  0  0  0  0  0  0  0  0  0
    2.1190   -0.3710   -0.1180 C   0  0  0  0  0  0  0  0  0  0  0  0
    3.0940    0.4660   -0.3560 C   0  0  0  0  0  0  0  0  0  0  0  0
    2.9630    1.9280   -0.3950 C   0  0  0  0  0  0  0  0  0  0  0  0
    3.9850    2.7080   -0.4180 C   0  0  0  0  0  0  0  0  0  0  0  0
    4.0300    4.1770   -0.5630 C   0  0  0  0  0  0  0  0  0  0  0  0
    4.5310    4.7050    0.5660 O   0  0  0  0  0  0  0  0  0  0  0  0
    5.6440    4.8190    1.0120 O   0  0  0  0  0  0  0  0  0  0  0  0
    2.2350   -1.7240   -0.4230 N   0  0  0  0  0  0  0  0  0  0  0  0
    2.9840   -2.8340   -0.1910 C   0  0  0  0  0  0  0  0  0  0  0  0
    4.1780   -3.0230   -0.7070 C   0  0  0  0  0  0  0  0  0  0  0  0
    4.9790   -4.2320   -0.4110 C   0  0  0  0  0  0  0  0  0  0  0  0
    4.1980   -5.3290   -0.0290 O   0  0  0  0  0  0  0  0  0  0  0  0
    2.9570   -5.1560    0.5270 C   0  0  0  0  0  0  0  0  0  0  0  0
    2.3520   -3.9930    0.4730 C   0  0  0  0  0  0  0  0  0  0  0  0
   -0.3300   -0.2530   -0.3100 O   0  0  0  0  0  0  0  0  0  0  0  0
   -3.0000    0.7970   -1.5720 C   0  0  0  0  0  0  0  0  0  0  0  0
   -4.3650    0.6170   -1.9130 N   0  0  0  0  0  0  0  0  0  0  0  0
   -4.7120   -0.7890   -1.8530 C   0  0  0  0  0  0  0  0  0  0  0  0
   -3.6010   -1.6420   -1.3280 C   0  0  0  0  0  0  0  0  0  0  0  0
   -2.9380   -1.1820   -0.2490 O   0  0  0  0  0  0  0  0  0  0  0  0
  1  2  2  0
  2  3  1  0
  2  7  1  0
  3  4  1  0
  4  5  1  0
  5  6  2  0
  5  7  1  0
  8  7  1  1
  8  9  1  0
  8 28  1  0
  8 32  1  0
  9 10  2  0
  9 27  1  0
 10 11  1  0
 11 12  2  0
 12 13  1  0
 12 27  1  0
 13 14  2  3
 13 20  1  0
 14 15  1  0
 15 16  2  3
 16 17  1  0
 17 18  1  0
 18 19  1  0
 20 21  1  0
 21 22  2  0
 21 26  1  0
 22 23  1  0
 23 24  1  0
 24 25  1  0
 25 26  2  0
 28 29  1  0
 29 30  1  0
 30 31  1  0
 31 32  1  0
M  END
