
     RDKit          3D

 27 28  0  0  0  0  0  0  0  0999 V2000
    8.0970    2.3700    1.4210 C   0  0  0  0  0  0  0  0  0  0  0  0
    6.9830    1.8440    0.9700 C   0  0  0  0  0  0  0  0  0  0  0  0
    6.8940    0.4110    0.7610 C   0  0  0  0  0  0  0  0  0  0  0  0
    5.8260   -0.2230    0.3120 C   0  0  0  0  0  0  0  0  0  0  0  0
    4.5970    0.4560   -0.0280 C   0  0  0  0  0  0  0  0  0  0  0  0
    3.5230   -0.1330   -0.4740 C   0  0  0  0  0  0  0  0  0  0  0  0
    3.3800   -1.5540   -0.7000 C   0  0  0  0  0  0  0  0  0  0  0  0
    2.3440   -2.1790   -1.1390 C   0  0  0  0  0  0  0  0  0  0  0  0
    2.4720   -3.5900   -1.2700 O   0  0  0  0  0  0  0  0  0  0  0  0
    1.0950   -1.5700   -1.4980 C   0  0  0  0  0  0  0  0  0  0  0  0
    0.8540   -0.2910   -1.4230 C   0  0  0  0  0  0  0  0  0  0  0  0
   -0.4320    0.2450   -1.8040 C   0  0  0  0  0  0  0  0  0  0  0  0
   -0.7030    1.4610   -1.7460 O   0  0  0  0  0  0  0  0  0  0  0  0
   -1.4250   -0.6090   -2.2570 O   0  0  0  0  0  0  0  0  0  0  0  0
   -2.7080   -0.2140   -2.6550 C   0  0  0  0  0  0  0  0  0  0  0  0
   -3.4140    0.4590   -1.5070 C   0  0  0  0  0  0  0  0  0  0  0  0
   -4.5830    0.8960   -1.6360 O   0  0  0  0  0  0  0  0  0  0  0  0
   -2.7920    0.6100   -0.2860 O   0  0  0  0  0  0  0  0  0  0  0  0
   -3.3520    1.2130    0.8380 C   0  0  0  0  0  0  0  0  0  0  0  0
   -4.5940    0.5190    1.3130 C   0  0  0  0  0  0  0  0  0  0  0  0
   -5.4040    1.0920    2.2560 C   0  0  0  0  0  0  0  0  0  0  0  0
   -6.5390    0.4360    2.6810 C   0  0  0  0  0  0  0  0  0  0  0  0
   -6.8610   -0.7640    2.1770 N   0  0  0  0  0  0  0  0  0  0  0  0
   -6.1080   -1.3700    1.2550 C   0  0  0  0  0  0  0  0  0  0  0  0
   -6.3990   -2.4860    0.7820 O   0  0  0  0  0  0  0  0  0  0  0  0
   -4.9560   -0.7110    0.8200 C   0  0  0  0  0  0  0  0  0  0  0  0
    2.0690    0.8670   -0.8530 S   0  0  0  0  0  0  0  0  0  0  0  0
  1  2  2  0
  2  3  1  0
  3  4  2  3
  4  5  1  0
  5  6  2  3
  6  7  1  0
  6 27  1  0
  7  8  2  0
  8  9  1  0
  8 10  1  0
 10 11  2  0
 11 12  1  0
 11 27  1  0
 12 13  2  0
 12 14  1  0
 14 15  1  0
 15 16  1  0
 16 17  2  0
 16 18  1  0
 18 19  1  0
 19 20  1  0
 20 21  1  0
 20 26  2  0
 21 22  2  0
 22 23  1  0
 23 24  1  0
 24 25  2  0
 24 26  1  0
M  END
