
     RDKit          3D

 27 29  0  0  0  0  0  0  0  0999 V2000
   -6.0600    1.0630    0.3370 C   0  0  0  0  0  0  0  0  0  0  0  0
   -6.0750   -0.1550    0.8480 C   0  0  0  0  0  0  0  0  0  0  0  0
   -5.7220   -1.3050   -0.0210 C   0  0  0  0  0  0  0  0  0  0  0  0
   -4.5560   -2.0400    0.5680 C   0  0  0  0  0  0  0  0  0  0  0  0
   -3.3810   -1.2120    0.6950 N   0  0  0  0  0  0  0  0  0  0  0  0
   -2.7200   -0.5870   -0.3930 C   0  0  0  0  0  0  0  0  0  0  0  0
   -3.1560   -0.7380   -1.5580 O   0  0  0  0  0  0  0  0  0  0  0  0
   -1.5330    0.2370   -0.2120 C   0  0  0  0  0  0  0  0  0  0  0  0
   -0.4490   -0.2480    0.4880 C   0  0  0  0  0  0  0  0  0  0  0  0
    0.7150    0.5190    0.6840 C   0  0  0  0  0  0  0  0  0  0  0  0
    2.0410   -0.1990    1.5390 S   0  0  2  0  0  0  0  0  0  0  0  0
    1.6230   -1.4720    2.2400 O   0  0  0  0  0  0  0  0  0  0  0  0
    2.4300    0.7510    2.6670 O   0  0  0  0  0  0  0  0  0  0  0  0
    3.4530   -0.4920    0.5970 C   0  0  0  0  0  0  0  0  0  0  0  0
    3.5170   -1.5650   -0.2890 C   0  0  0  0  0  0  0  0  0  0  0  0
    4.6570   -1.7990   -1.0060 C   0  0  0  0  0  0  0  0  0  0  0  0
    5.7820   -1.0050   -0.8960 C   0  0  0  0  0  0  0  0  0  0  0  0
    5.7300    0.0590   -0.0230 C   0  0  0  0  0  0  0  0  0  0  0  0
    4.5590    0.2800    0.6980 C   0  0  0  0  0  0  0  0  0  0  0  0
    6.9730    0.6950   -0.0950 O   0  0  0  0  0  0  0  0  0  0  0  0
    7.9160   -0.2180   -0.6720 C   0  0  0  0  0  0  0  0  0  0  0  0
    7.0500   -0.9940   -1.4790 O   0  0  0  0  0  0  0  0  0  0  0  0
    0.7190    1.7770    0.1440 C   0  0  0  0  0  0  0  0  0  0  0  0
    1.8240    2.5900    0.3020 O   0  0  0  0  0  0  0  0  0  0  0  0
   -0.3840    2.2820   -0.5750 C   0  0  0  0  0  0  0  0  0  0  0  0
   -1.5090    1.5040   -0.7490 C   0  0  0  0  0  0  0  0  0  0  0  0
   -2.6940    1.9770   -1.4880 C   0  0  0  0  0  0  0  0  0  0  0  0
  1  2  2  0
  2  3  1  0
  3  4  1  0
  4  5  1  0
  5  6  1  0
  6  7  2  0
  6  8  1  0
  8  9  2  0
  8 26  1  0
  9 10  1  0
 11 10  1  6
 10 23  2  0
 11 12  2  0
 11 13  2  0
 11 14  1  0
 14 15  2  0
 14 19  1  0
 15 16  1  0
 16 17  2  0
 17 18  1  0
 17 22  1  0
 18 19  2  0
 18 20  1  0
 20 21  1  0
 21 22  1  0
 23 24  1  0
 23 25  1  0
 25 26  2  0
 26 27  1  0
M  END
