
     RDKit          3D

 27 29  0  0  0  0  0  0  0  0999 V2000
   -1.5400   -0.6480   -0.6220 O   0  0  0  0  0  0  0  0  0  0  0  0
   -1.1170   -0.4810    0.5340 C   0  0  0  0  0  0  0  0  0  0  0  0
    0.3410   -0.3890    0.7860 C   0  0  0  0  0  0  0  0  0  0  0  0
    1.0960   -0.6030   -0.5690 C   0  0  0  0  0  0  0  0  0  0  0  0
    2.3710   -0.5440   -0.3990 O   0  0  0  0  0  0  0  0  0  0  0  0
    3.6680   -0.4850   -0.2260 C   0  0  0  0  0  0  0  0  0  0  0  0
    4.1760    0.6950    0.2890 C   0  0  0  0  0  0  0  0  0  0  0  0
    5.5620    0.9450    0.5480 C   0  0  0  0  0  0  0  0  0  0  0  0
    6.2080    2.0230    1.0410 C   0  0  0  0  0  0  0  0  0  0  0  0
    7.6520    1.7260    1.0950 C   0  0  0  0  0  0  0  0  0  0  0  0
    7.7360    0.3460    0.5740 C   0  0  0  0  0  0  0  0  0  0  0  0
    6.5130   -0.1020    0.2570 C   0  0  0  0  0  0  0  0  0  0  0  0
    6.0620   -1.3640   -0.2820 C   0  0  0  0  0  0  0  0  0  0  0  0
    6.8760   -2.3000   -0.5460 O   0  0  0  0  0  0  0  0  0  0  0  0
    4.6020   -1.5470   -0.5250 C   0  0  0  0  0  0  0  0  0  0  0  0
    4.2550   -2.6980   -1.0270 C   0  0  0  0  0  0  0  0  0  0  0  0
    2.5960   -3.1700   -1.4320 S   0  0  0  0  0  0  0  0  0  0  0  0
   -2.0250   -0.3860    1.5730 O   0  0  0  0  0  0  0  0  0  0  0  0
   -3.4240   -0.4650    1.3920 C   0  0  0  0  0  0  0  0  0  0  0  0
   -3.9180    0.6160    0.4950 C   0  0  0  0  0  0  0  0  0  0  0  0
   -3.0660    1.4270    0.0340 O   0  0  0  0  0  0  0  0  0  0  0  0
   -5.2830    0.7500    0.1580 N   0  0  0  0  0  0  0  0  0  0  0  0
   -5.7920    1.7900   -0.7100 C   0  0  0  0  0  0  0  0  0  0  0  0
   -6.3620    1.0690   -1.9290 C   0  0  0  0  0  0  0  0  0  0  0  0
   -6.9110   -0.1500   -1.6390 O   0  0  0  0  0  0  0  0  0  0  0  0
   -7.4020   -0.2740   -0.3390 C   0  0  0  0  0  0  0  0  0  0  0  0
   -6.2800   -0.1840    0.6810 C   0  0  0  0  0  0  0  0  0  0  0  0
  1  2  2  0
  2  3  1  0
  2 18  1  0
  3  4  1  0
  4  5  1  0
  5  6  1  0
  6  7  2  0
  6 15  1  0
  7  8  1  0
  8  9  2  0
  8 12  1  0
  9 10  1  0
 10 11  1  0
 11 12  2  0
 12 13  1  0
 13 14  2  0
 13 15  1  0
 15 16  2  3
 16 17  1  0
 18 19  1  0
 19 20  1  0
 20 21  2  0
 20 22  1  0
 22 23  1  0
 22 27  1  0
 23 24  1  0
 24 25  1  0
 25 26  1  0
 26 27  1  0
M  END
