
     RDKit          3D

 27 29  0  0  0  0  0  0  0  0999 V2000
    3.0290    3.4280   -1.6060 C   0  0  0  0  0  0  0  0  0  0  0  0
    3.8180    2.2980   -2.2370 C   0  0  0  0  0  0  0  0  0  0  0  0
    3.6470    0.8100   -1.2540 S   0  0  0  0  0  0  0  0  0  0  0  0
    1.9780    0.1900   -1.2780 C   0  0  0  0  0  0  0  0  0  0  0  0
    1.1590    0.8470   -1.9700 O   0  0  0  0  0  0  0  0  0  0  0  0
    1.5570   -1.0130   -0.5440 C   0  0  0  0  0  0  0  0  0  0  0  0
    2.4870   -1.6300    0.1540 C   0  0  0  0  0  0  0  0  0  0  0  0
    3.8380   -1.1090    0.1630 N   0  0  0  0  0  0  0  0  0  0  0  0
    2.2310   -2.7720    0.8950 O   0  0  0  0  0  0  0  0  0  0  0  0
    0.9210   -3.2800    0.8910 C   0  0  0  0  0  0  0  0  0  0  0  0
   -0.0370   -2.7190    0.2250 C   0  0  0  0  0  0  0  0  0  0  0  0
   -1.2890   -3.4730    0.4130 C   0  0  0  0  0  0  0  0  0  0  0  0
   -2.4210   -3.1980   -0.0980 O   0  0  0  0  0  0  0  0  0  0  0  0
   -0.9840   -4.5250    1.2470 O   0  0  0  0  0  0  0  0  0  0  0  0
    0.3650   -4.4930    1.5990 C   0  0  0  0  0  0  0  0  0  0  0  0
    0.1850   -1.5090   -0.5820 C   0  0  1  0  0  0  0  0  0  0  0  0
   -0.8230   -0.4580   -0.2810 C   0  0  0  0  0  0  0  0  0  0  0  0
   -1.4770    0.1510   -1.3220 C   0  0  0  0  0  0  0  0  0  0  0  0
   -2.4370    1.1220   -1.0580 C   0  0  0  0  0  0  0  0  0  0  0  0
   -3.1160    1.7560   -2.0920 O   0  0  0  0  0  0  0  0  0  0  0  0
   -2.8280    1.4100   -3.4320 C   0  0  0  0  0  0  0  0  0  0  0  0
   -2.7220    1.4650    0.2450 C   0  0  0  0  0  0  0  0  0  0  0  0
   -3.7420    2.4980    0.5220 C   0  0  0  0  0  0  0  0  0  0  0  0
   -2.0410    0.8280    1.2850 C   0  0  0  0  0  0  0  0  0  0  0  0
   -1.0880   -0.1360    1.0330 C   0  0  0  0  0  0  0  0  0  0  0  0
   -0.3780   -0.8040    2.0090 O   0  0  0  0  0  0  0  0  0  0  0  0
   -0.6500   -0.4730    3.3630 C   0  0  0  0  0  0  0  0  0  0  0  0
  1  2  1  0
  2  3  1  0
  3  4  1  0
  4  5  2  0
  4  6  1  0
  6  7  2  0
  6 16  1  0
  7  8  1  0
  7  9  1  0
  9 10  1  0
 10 11  2  0
 10 15  1  0
 11 12  1  0
 11 16  1  0
 12 13  2  0
 12 14  1  0
 14 15  1  0
 16 17  1  1
 17 18  2  0
 17 25  1  0
 18 19  1  0
 19 20  1  0
 19 22  2  0
 20 21  1  0
 22 23  1  0
 22 24  1  0
 24 25  2  0
 25 26  1  0
 26 27  1  0
M  END
