
     RDKit          3D

 27 29  0  0  0  0  0  0  0  0999 V2000
    2.6330    1.8430    3.3950 C   0  0  0  0  0  0  0  0  0  0  0  0
    1.3210    1.6660    3.0610 O   0  0  0  0  0  0  0  0  0  0  0  0
    1.0160    0.5550    2.3020 C   0  0  0  0  0  0  0  0  0  0  0  0
    1.6930    0.5390    1.0050 C   0  0  0  0  0  0  0  0  0  0  0  0
    1.0120    0.5240   -0.1100 C   0  0  0  0  0  0  0  0  0  0  0  0
   -0.4940    0.5230   -0.1430 C   0  0  0  0  0  0  0  0  0  0  0  0
   -1.1770    1.6190    0.2840 C   0  0  0  0  0  0  0  0  0  0  0  0
   -0.8220    2.9480    0.7180 C   0  0  0  0  0  0  0  0  0  0  0  0
   -1.7400    3.6930    1.1960 O   0  0  0  0  0  0  0  0  0  0  0  0
    0.4490    3.4970    0.6530 N   0  0  0  0  0  0  0  0  0  0  0  0
    0.7460    4.8230    1.1570 C   0  0  0  0  0  0  0  0  0  0  0  0
   -0.2160    5.4470    1.6770 O   0  0  0  0  0  0  0  0  0  0  0  0
   -2.8980    1.0850    0.2220 S   0  0  0  0  0  0  0  0  0  0  0  0
   -2.5440   -0.5580   -0.3780 C   0  0  0  0  0  0  0  0  0  0  0  0
   -3.4050   -1.6160   -0.6900 C   0  0  0  0  0  0  0  0  0  0  0  0
   -4.8730   -1.4780   -0.5390 C   0  0  0  0  0  0  0  0  0  0  0  0
   -2.8770   -2.8130   -1.1490 C   0  0  0  0  0  0  0  0  0  0  0  0
   -1.5110   -2.8520   -1.2590 C   0  0  0  0  0  0  0  0  0  0  0  0
   -0.9330   -4.0580   -1.7240 O   0  0  0  0  0  0  0  0  0  0  0  0
   -1.7280   -5.1500   -2.0510 C   0  0  0  0  0  0  0  0  0  0  0  0
   -0.6880   -1.8220   -0.9540 C   0  0  0  0  0  0  0  0  0  0  0  0
   -1.2120   -0.5870   -0.4810 C   0  0  0  0  0  0  0  0  0  0  0  0
    1.6610    0.5020   -1.4010 C   0  0  0  0  0  0  0  0  0  0  0  0
    2.9890    0.4970   -1.4710 C   0  0  0  0  0  0  0  0  0  0  0  0
    3.5750    0.4760   -2.7280 O   0  0  0  0  0  0  0  0  0  0  0  0
    3.8180    0.5130   -0.2650 C   0  0  0  0  0  0  0  0  0  0  0  0
    3.0740    0.5380    0.9070 O   0  0  0  0  0  0  0  0  0  0  0  0
  1  2  1  0
  2  3  1  0
  3  4  1  0
  4  5  2  0
  4 27  1  0
  5  6  1  0
  5 23  1  0
  6  7  2  0
  6 22  1  0
  7  8  1  0
  7 13  1  0
  8  9  2  0
  8 10  1  0
 10 11  1  0
 11 12  2  0
 13 14  1  0
 14 15  2  0
 14 22  1  0
 15 16  1  0
 15 17  1  0
 17 18  2  0
 18 19  1  0
 18 21  1  0
 19 20  1  0
 21 22  2  0
 23 24  2  0
 24 25  1  0
 24 26  1  0
 26 27  1  0
M  END
