
     RDKit          3D

 11 11  0  0  0  0  0  0  0  0999 V2000
   -2.9260    0.6580   -0.1000 O   0  0  0  0  0  0  0  0  0  0  0  0
   -2.0090   -0.1580    0.5380 C   0  0  0  0  0  0  0  0  0  0  0  0
   -0.7460   -0.3390   -0.3160 C   0  0  2  0  0  0  0  0  0  0  0  0
   -1.1220   -0.9140   -1.5100 O   0  0  0  0  0  0  0  0  0  0  0  0
    0.2300   -1.2340    0.3750 C   0  0  0  0  0  0  0  0  0  0  0  0
    1.4520   -0.5130    0.8840 C   0  0  0  0  0  0  0  0  0  0  0  0
    1.9950    0.4970   -0.0760 C   0  0  1  0  0  0  0  0  0  0  0  0
    3.1750    0.0270   -0.6770 O   0  0  0  0  0  0  0  0  0  0  0  0
    1.1030    0.8990   -1.0440 O   0  0  0  0  0  0  0  0  0  0  0  0
   -0.1860    1.0310   -0.6110 C   0  0  2  0  0  0  0  0  0  0  0  0
   -0.3300    1.7890    0.5440 O   0  0  0  0  0  0  0  0  0  0  0  0
  1  2  1  0
  2  3  1  0
  3  4  1  6
  3  5  1  0
  3 10  1  0
  5  6  1  0
  6  7  1  0
  7  8  1  6
  7  9  1  0
  9 10  1  0
 10 11  1  1
M  END
