
     RDKit          3D

 12 12  0  0  0  0  0  0  0  0999 V2000
    3.4710    0.7780    0.2910 O   0  0  0  0  0  0  0  0  0  0  0  0
    2.1670    0.5400    0.7030 C   0  0  0  0  0  0  0  0  0  0  0  0
    1.3660   -0.2120   -0.3430 C   0  0  1  0  0  0  0  0  0  0  0  0
    1.9670   -1.4390   -0.5990 O   0  0  0  0  0  0  0  0  0  0  0  0
    0.0080   -0.4850    0.2460 C   0  0  1  0  0  0  0  0  0  0  0  0
    0.1730   -1.2130    1.4270 O   0  0  0  0  0  0  0  0  0  0  0  0
   -0.7000    0.8010    0.6300 C   0  0  0  0  0  0  0  0  0  0  0  0
   -2.1090    0.4860    0.1080 C   0  0  2  0  0  0  0  0  0  0  0  0
   -2.6440   -0.4560    0.9500 O   0  0  0  0  0  0  0  0  0  0  0  0
   -1.6720   -0.1920   -1.1980 C   0  0  2  0  0  0  0  0  0  0  0  0
   -2.7300   -0.7880   -1.8400 O   0  0  0  0  0  0  0  0  0  0  0  0
   -0.7800   -1.1290   -0.6730 O   0  0  0  0  0  0  0  0  0  0  0  0
  1  2  1  0
  2  3  1  0
  3  4  1  1
  3  5  1  0
  5  6  1  1
  5  7  1  0
  5 12  1  0
  7  8  1  0
  8  9  1  1
  8 10  1  0
 10 11  1  1
 10 12  1  0
M  END
