
     RDKit          3D

 11 11  0  0  0  0  0  0  0  0999 V2000
   -2.1530   -1.6390   -0.4250 O   0  0  0  0  0  0  0  0  0  0  0  0
   -1.7370   -0.5870    0.3840 C   0  0  2  0  0  0  0  0  0  0  0  0
   -2.7320    0.3240    0.6610 O   0  0  0  0  0  0  0  0  0  0  0  0
   -0.5520    0.0740   -0.2790 C   0  0  1  0  0  0  0  0  0  0  0  0
   -0.8630    0.5670   -1.5230 O   0  0  0  0  0  0  0  0  0  0  0  0
    0.0220    1.1830    0.5720 C   0  0  0  0  0  0  0  0  0  0  0  0
    1.4620    1.2800    0.0890 C   0  0  0  0  0  0  0  0  0  0  0  0
    1.8280   -0.0760   -0.4430 C   0  0  1  0  0  0  0  0  0  0  0  0
    2.7880   -0.7220    0.3130 O   0  0  0  0  0  0  0  0  0  0  0  0
    0.5700   -0.9180   -0.4180 C   0  0  1  0  0  0  0  0  0  0  0  0
    0.6070   -1.7500    0.7220 O   0  0  0  0  0  0  0  0  0  0  0  0
  2  1  1  6
  2  3  1  0
  2  4  1  0
  4  5  1  6
  4  6  1  0
  4 10  1  0
  6  7  1  0
  7  8  1  0
  8  9  1  1
  8 10  1  0
 10 11  1  1
M  END
