
     RDKit          3D

 11 11  0  0  0  0  0  0  0  0999 V2000
    3.2080   -0.1070    0.2780 O   0  0  0  0  0  0  0  0  0  0  0  0
    2.1690   -0.7890   -0.3480 C   0  0  0  0  0  0  0  0  0  0  0  0
    0.8710   -0.4610    0.3870 C   0  0  2  0  0  0  0  0  0  0  0  0
   -0.3000   -1.1660   -0.2360 C   0  0  0  0  0  0  0  0  0  0  0  0
   -1.5540   -0.6480    0.4430 C   0  0  2  0  0  0  0  0  0  0  0  0
   -2.7050   -1.2210   -0.0360 O   0  0  0  0  0  0  0  0  0  0  0  0
   -1.5940    0.8450    0.2080 C   0  0  1  0  0  0  0  0  0  0  0  0
   -2.8020    1.4070    0.5900 O   0  0  0  0  0  0  0  0  0  0  0  0
   -0.5090    1.4520    0.8660 O   0  0  0  0  0  0  0  0  0  0  0  0
    0.6670    1.0340    0.2650 C   0  0  2  0  0  0  0  0  0  0  0  0
    0.6980    1.3670   -1.0970 O   0  0  0  0  0  0  0  0  0  0  0  0
  1  2  1  0
  3  2  1  6
  3  4  1  0
  3 10  1  0
  4  5  1  0
  5  6  1  6
  5  7  1  0
  7  8  1  1
  7  9  1  0
  9 10  1  0
 10 11  1  6
M  END
