
     RDKit          3D

 12 12  0  0  0  0  0  0  0  0999 V2000
    3.1590    0.9230   -0.6200 O   0  0  0  0  0  0  0  0  0  0  0  0
    2.3540   -0.1300   -0.1990 C   0  0  0  0  0  0  0  0  0  0  0  0
    1.0260    0.3900    0.2800 C   0  0  1  0  0  0  0  0  0  0  0  0
    0.3560    1.0740   -0.7410 O   0  0  0  0  0  0  0  0  0  0  0  0
   -0.8900    1.4410   -0.1820 C   0  0  1  0  0  0  0  0  0  0  0  0
   -1.4710    2.4820   -0.8620 O   0  0  0  0  0  0  0  0  0  0  0  0
   -1.7710    0.2000   -0.3520 C   0  0  2  0  0  0  0  0  0  0  0  0
   -3.0030    0.3880    0.2580 O   0  0  0  0  0  0  0  0  0  0  0  0
   -1.0490   -1.0210    0.1140 C   0  0  1  0  0  0  0  0  0  0  0  0
   -0.8600   -1.8600   -0.9710 O   0  0  0  0  0  0  0  0  0  0  0  0
    0.1990   -0.7160    0.8740 C   0  0  1  0  0  0  0  0  0  0  0  0
    1.0040   -1.8220    1.0310 O   0  0  0  0  0  0  0  0  0  0  0  0
  1  2  1  0
  3  2  1  6
  3  4  1  0
  3 11  1  0
  4  5  1  0
  5  6  1  6
  5  7  1  0
  7  8  1  1
  7  9  1  0
  9 10  1  6
  9 11  1  0
 11 12  1  6
M  END
