
     RDKit          3D

 11 11  0  0  0  0  0  0  0  0999 V2000
    2.6530   -1.2520    0.5750 O   0  0  0  0  0  0  0  0  0  0  0  0
    2.0470   -0.6410   -0.5010 C   0  0  0  0  0  0  0  0  0  0  0  0
    0.8010    0.0640    0.0310 C   0  0  2  0  0  0  0  0  0  0  0  0
    1.2350    0.9880    0.9790 O   0  0  0  0  0  0  0  0  0  0  0  0
   -0.0170   -1.0180    0.7330 C   0  0  0  0  0  0  0  0  0  0  0  0
   -1.4690   -0.8840    0.3690 C   0  0  2  0  0  0  0  0  0  0  0  0
   -1.7840   -1.4790   -0.8360 O   0  0  0  0  0  0  0  0  0  0  0  0
   -1.8560    0.5600    0.4370 C   0  0  0  0  0  0  0  0  0  0  0  0
   -0.9770    1.3480   -0.4760 C   0  0  2  0  0  0  0  0  0  0  0  0
   -1.7250    1.8490   -1.5610 O   0  0  0  0  0  0  0  0  0  0  0  0
    0.0810    0.6460   -1.0010 O   0  0  0  0  0  0  0  0  0  0  0  0
  1  2  1  0
  2  3  1  0
  3  4  1  1
  3  5  1  0
  3 11  1  0
  5  6  1  0
  6  7  1  6
  6  8  1  0
  8  9  1  0
  9 10  1  6
  9 11  1  0
M  END
