
     RDKit          3D

 12 12  0  0  0  0  0  0  0  0999 V2000
    3.1820    1.2510    1.1490 O   0  0  0  0  0  0  0  0  0  0  0  0
    2.7550    0.0750    0.5370 C   0  0  0  0  0  0  0  0  0  0  0  0
    1.4610    0.3600   -0.2240 C   0  0  1  0  0  0  0  0  0  0  0  0
    0.9940   -0.7760   -0.8500 O   0  0  0  0  0  0  0  0  0  0  0  0
   -0.3670   -0.7040   -1.1260 C   0  0  0  0  0  0  0  0  0  0  0  0
   -1.1810   -0.5710    0.1350 C   0  0  2  0  0  0  0  0  0  0  0  0
   -1.6270   -1.8270    0.5110 O   0  0  0  0  0  0  0  0  0  0  0  0
   -2.3490    0.3870   -0.0540 C   0  0  0  0  0  0  0  0  0  0  0  0
   -1.8780    1.6430   -0.4310 O   0  0  0  0  0  0  0  0  0  0  0  0
   -0.3030   -0.0290    1.2210 C   0  0  1  0  0  0  0  0  0  0  0  0
    0.3770   -1.0100    1.9250 O   0  0  0  0  0  0  0  0  0  0  0  0
    0.5580    0.9130    0.6560 O   0  0  0  0  0  0  0  0  0  0  0  0
  1  2  1  0
  3  2  1  1
  3  4  1  0
  3 12  1  0
  4  5  1  0
  5  6  1  0
  6  7  1  1
  6  8  1  0
  6 10  1  0
  8  9  1  0
 10 11  1  6
 10 12  1  0
M  END
