
     RDKit          3D

 11 11  0  0  0  0  0  0  0  0999 V2000
    2.1870   -1.4850    1.1610 O   0  0  0  0  0  0  0  0  0  0  0  0
    2.3870   -0.6680    0.0570 C   0  0  0  0  0  0  0  0  0  0  0  0
    1.5070    0.5370    0.0710 C   0  0  1  0  0  0  0  0  0  0  0  0
    1.7820    1.2920   -1.0740 O   0  0  0  0  0  0  0  0  0  0  0  0
    0.0430    0.2160    0.1960 C   0  0  2  0  0  0  0  0  0  0  0  0
   -0.1060   -0.5370    1.3710 O   0  0  0  0  0  0  0  0  0  0  0  0
   -0.5470   -0.4290   -1.0020 C   0  0  0  0  0  0  0  0  0  0  0  0
   -2.0160    0.0070   -0.9420 C   0  0  0  0  0  0  0  0  0  0  0  0
   -2.0280    0.8690    0.2900 C   0  0  1  0  0  0  0  0  0  0  0  0
   -2.3590    0.0800    1.3870 O   0  0  0  0  0  0  0  0  0  0  0  0
   -0.7330    1.3580    0.3690 O   0  0  0  0  0  0  0  0  0  0  0  0
  1  2  1  0
  2  3  1  0
  3  4  1  6
  3  5  1  0
  5  6  1  1
  5  7  1  0
  5 11  1  0
  7  8  1  0
  8  9  1  0
  9 10  1  1
  9 11  1  0
M  END
